# SFR8 input file, prepared by MF5to6 on 1/24/2017 at 17:28:41.

BEGIN Options
  BOUNDNAMES
  PRINT_STAGE
  PRINT_FLOWS
  UNIT_CONVERSION    128390.00    
  SAVE_FLOWS
  STAGE FILEOUT ex07.sfr.stage.bin
  BUDGET FILEOUT ex07.sfr.cbc
END Options

BEGIN Dimensions
  NREACHES  38
END Dimensions

BEGIN PACKAGEDATA
#rno  cellid     rlen     rwid          rgrd     rbtp     rbth     rbhk           man ncon  ustrf ndv
   1 1  1 23 400.0000 5.000000 0.1818182E-02 48.63636 1.000000 100.0000 0.3000000E-01    1 1.0000   0  seg1  
   2 1  2 23 200.0000 5.000000 0.1818182E-02 48.09091 1.000000 100.0000 0.3000000E-01    2 1.0000   0  seg1 
   3 1  2 22 400.0000 5.000000 0.1818182E-02 47.54546 1.000000 100.0000 0.3000000E-01    2 1.0000   0  seg1  
   4 1  3 21 400.0000 5.000000 0.1818182E-02 46.81818 1.000000 100.0000 0.3000000E-01    2 1.0000   0  seg1  
   5 1  4 20 400.0000 5.000000 0.1818182E-02 46.09091 1.000000 100.0000 0.3000000E-01    2 1.0000   0  seg1  
   6 1  5 20 400.0000 5.000000 0.1818182E-02 45.36364 1.000000 100.0000 0.3000000E-01    1 1.0000   0  seg1  
   7 1 17 18 400.0000 5.000000 0.2187500E-02 44.06250 1.000000 100.0000 0.3000000E-01    1 1.0000   0  seg2 
   8 1 18 18 400.0000 5.000000 0.2187500E-02 43.18750 1.000000 100.0000 0.3000000E-01    2 1.0000   0  seg2 
   9 1 19 18 400.0000 5.000000 0.2187500E-02 42.31250 1.000000 100.0000 0.3000000E-01    2 1.0000   0  seg2 
  10 1 20 17 400.0000 5.000000 0.2187500E-02 41.43750 1.000000 100.0000 0.3000000E-01    2 1.0000   0  seg2 
  11 1 21 17 400.0000 5.000000 0.2187500E-02 40.56250 1.000000 100.0000 0.3000000E-01    2 1.0000   0  seg2 
  12 1 22 17 400.0000 5.000000 0.2187500E-02 39.68750 1.000000 100.0000 0.3000000E-01    2 1.0000   0  seg2 
  13 1 23 16 400.0000 5.000000 0.2187500E-02 38.81250 1.000000 100.0000 0.3000000E-01    2 1.0000   0  seg2 
  14 1 24 16 400.0000 5.000000 0.2187500E-02 37.93750 1.000000 100.0000 0.3000000E-01    2 1.0000   0  seg2 
  15 1 25 16 400.0000 5.000000 0.2187500E-02 37.06250 1.000000 100.0000 0.3000000E-01    2 1.0000   0  seg2 
  16 1 26 16 400.0000 5.000000 0.2187500E-02 36.18750 1.000000 100.0000 0.3000000E-01    2 1.0000   0  seg2 
  17 1 27 16 400.0000 5.000000 0.2187500E-02 35.31250 1.000000 100.0000 0.3000000E-01    2 1.0000   0  seg2 
  18 1 28 15 400.0000 5.000000 0.2187500E-02 34.43750 1.000000 100.0000 0.3000000E-01    2 1.0000   0  seg2 
  19 1 18 11 400.0000 5.000000 0.1704545E-02 41.15909 1.000000 100.0000 0.3000000E-01    1 1.0000   0  seg3 
  20 1 19 11 200.0000 5.000000 0.1704545E-02 40.64773 1.000000 100.0000 0.3000000E-01    2 1.0000   0  seg3
  21 1 19 12 200.0000 5.000000 0.1704545E-02 40.30682 1.000000 100.0000 0.3000000E-01    2 1.0000   0  seg3
  22 1 20 12 400.0000 5.000000 0.1704545E-02 39.79546 1.000000 100.0000 0.3000000E-01    2 1.0000   0  seg3 
  23 1 21 12 400.0000 5.000000 0.1704545E-02 39.11364 1.000000 100.0000 0.3000000E-01    2 1.0000   0  seg3 
  24 1 22 13 400.0000 5.000000 0.1704545E-02 38.43182 1.000000 100.0000 0.3000000E-01    2 1.0000   0  seg3 
  25 1 23 13 400.0000 5.000000 0.1704545E-02 37.75000 1.000000 100.0000 0.3000000E-01    2 1.0000   0  seg3 
  26 1 24 13 200.0000 5.000000 0.1704545E-02 37.23864 1.000000 100.0000 0.3000000E-01    2 1.0000   0  seg3
  27 1 24 14 200.0000 5.000000 0.1704545E-02 36.89773 1.000000 100.0000 0.3000000E-01    2 1.0000   0  seg3
  28 1 25 14 400.0000 5.000000 0.1704545E-02 36.38636 1.000000 100.0000 0.3000000E-01    2 1.0000   0  seg3 
  29 1 26 14 400.0000 5.000000 0.1704545E-02 35.70454 1.000000 100.0000 0.3000000E-01    2 1.0000   0  seg3 
  30 1 27 14 400.0000 5.000000 0.1704545E-02 35.02273 1.000000 100.0000 0.3000000E-01    2 1.0000   0  seg3 
  31 1 28 15 400.0000 5.000000 0.1704545E-02 34.34091 1.000000 100.0000 0.3000000E-01    2 1.0000   0  seg3 
  32 1 29 15 400.0000 5.000000 0.2428571E-02 33.51429 1.000000 100.0000 0.3000000E-01    3 1.0000   0  seg4 
  33 1 30 15 400.0000 5.000000 0.2428571E-02 32.54286 1.000000 100.0000 0.3000000E-01    2 1.0000   0  seg4 
  34 1 31 15 400.0000 5.000000 0.2428571E-02 31.57143 1.000000 100.0000 0.3000000E-01    2 1.0000   0  seg4 
  35 1 32 15 400.0000 5.000000 0.2428571E-02 30.60000 1.000000 100.0000 0.3000000E-01    2 1.0000   0  seg4 
  36 1 33 15 400.0000 5.000000 0.2428571E-02 29.62857 1.000000 100.0000 0.3000000E-01    2 1.0000   0  seg4 
  37 1 34 15 400.0000 5.000000 0.2428571E-02 28.65714 1.000000 100.0000 0.3000000E-01    2 1.0000   0  seg4 
  38 1 35 15 400.0000 5.000000 0.2428571E-02 27.68571 1.000000 100.0000 0.3000000E-01    1 1.0000   0  seg4 
END PACKAGEDATA

BEGIN CONNECTIONDATA
  1 -2
  2 1 -3
  3 2 -4
  4 3 -5
  5 4 -6
  6 5
  7 -8
  8 7 -9
  9 8 -10
  10 9 -11
  11 10 -12
  12 11 -13
  13 12 -14
  14 13 -15
  15 14 -16
  16 15 -17
  17 16 -18
  18 17 -32
  19 -20
  20 19 -21
  21 20 -22
  22 21 -23
  23 22 -24
  24 23 -25
  25 24 -26
  26 25 -27
  27 26 -28
  28 27 -29
  29 28 -30
  30 29 -31
  31 30 -32
  32 18 31 -33
  33 32 -34
  34 33 -35
  35 34 -36
  36 35 -37
  37 36 -38
  38 37
END CONNECTIONDATA

BEGIN PERIOD 1
  1 inflow   86400.000
END PERIOD

BEGIN PERIOD 2
  1 inflow   95040.
END PERIOD
