# LAK8 input file, prepared by MF5to6 on 1/24/2017 at 17:28:41.

BEGIN Options
  BOUNDNAMES
  PRINT_INPUT 
  PRINT_STAGE
  PRINT_FLOWS
  SAVE_FLOWS
  STAGE FILEOUT ex07.lak.stage.bin
  BUDGET FILEOUT ex07.lak.cbc
  TIME_CONVERSION    86400.000 
END Options

BEGIN Dimensions
  NLAKES  2
  NOUTLETS 1
END Dimensions

BEGIN PACKAGEDATA
# lakeno    strt        nlakeconn
       1    44.000000      78        lake1
       2    35.200001      32        lake2
END PACKAGEDATA

BEGIN CONNECTIONDATA
# lakeno iconn     cellid  claktype     bedleak    belev    telev  connlen connwidth
       1     1  1   5  19  HORIZONTAL  1.000000 0.000000 0.000000 201.8585  405.6650    
       1     2  1   5  20  HORIZONTAL  1.000000 0.000000 0.000000 201.8585  405.6650    
       1     3  1   6  18  HORIZONTAL  1.000000 0.000000 0.000000 202.8325  403.7170    
       1     4  1   6  18  HORIZONTAL  1.000000 0.000000 0.000000 201.8585  405.6650    
       1     5  1   6  21  HORIZONTAL  1.000000 0.000000 0.000000 202.8325  403.7170    
       1     6  1   7  16  HORIZONTAL  1.000000 0.000000 0.000000 201.8585  405.6650    
       1     7  1   7  17  HORIZONTAL  1.000000 0.000000 0.000000 202.8325  403.7170    
       1     8  1   7  17  HORIZONTAL  1.000000 0.000000 0.000000 201.8585  405.6650    
       1     9  1   7  21  HORIZONTAL  1.000000 0.000000 0.000000 202.8325  403.7170    
       1    10  1   8  15  HORIZONTAL  1.000000 0.000000 0.000000 202.8325  403.7170    
       1    11  1   8  21  HORIZONTAL  1.000000 0.000000 0.000000 202.8325  403.7170    
       1    12  1   8  21  HORIZONTAL  1.000000 0.000000 0.000000 201.8585  405.6650    
       1    13  1   9  15  HORIZONTAL  1.000000 0.000000 0.000000 202.8325  403.7170    
       1    14  1   9  22  HORIZONTAL  1.000000 0.000000 0.000000 202.8325  403.7170    
       1    15  1  10  15  HORIZONTAL  1.000000 0.000000 0.000000 202.8325  403.7170    
       1    16  1  10  22  HORIZONTAL  1.000000 0.000000 0.000000 202.8325  403.7170    
       1    17  1  11  16  HORIZONTAL  1.000000 0.000000 0.000000 202.8325  403.7170    
       1    18  1  11  16  HORIZONTAL  1.000000 0.000000 0.000000 201.8585  405.6650    
       1    19  1  11  22  HORIZONTAL  1.000000 0.000000 0.000000 202.8325  403.7170    
       1    20  1  12  16  HORIZONTAL  1.000000 0.000000 0.000000 202.8325  403.7170    
       1    21  1  12  22  HORIZONTAL  1.000000 0.000000 0.000000 202.8325  403.7170    
       1    22  1  13  16  HORIZONTAL  1.000000 0.000000 0.000000 202.8325  403.7170    
       1    23  1  13  21  HORIZONTAL  1.000000 0.000000 0.000000 202.8325  403.7170    
       1    24  1  13  21  HORIZONTAL  1.000000 0.000000 0.000000 201.8585  405.6650    
       1    25  1  14  16  HORIZONTAL  1.000000 0.000000 0.000000 202.8325  403.7170    
       1    26  1  14  21  HORIZONTAL  1.000000 0.000000 0.000000 202.8325  403.7170    
       1    27  1  15  16  HORIZONTAL  1.000000 0.000000 0.000000 202.8325  403.7170    
       1    28  1  15  20  HORIZONTAL  1.000000 0.000000 0.000000 202.8325  403.7170    
       1    29  1  15  20  HORIZONTAL  1.000000 0.000000 0.000000 201.8585  405.6650    
       1    30  1  16  17  HORIZONTAL  1.000000 0.000000 0.000000 202.8325  403.7170    
       1    31  1  16  17  HORIZONTAL  1.000000 0.000000 0.000000 201.8585  405.6650    
       1    32  1  16  19  HORIZONTAL  1.000000 0.000000 0.000000 202.8325  403.7170    
       1    33  1  16  19  HORIZONTAL  1.000000 0.000000 0.000000 201.8585  405.6650    
       1    34  1  17  18  HORIZONTAL  1.000000 0.000000 0.000000 201.8585  405.6650    
       1    35  2   6  19  VERTICAL    1.000000 0.000000 0.000000 0.000000  0.000000    
       1    36  2   6  20  VERTICAL    1.000000 0.000000 0.000000 0.000000  0.000000    
       1    37  2   7  18  VERTICAL    1.000000 0.000000 0.000000 0.000000  0.000000    
       1    38  2   7  19  VERTICAL    1.000000 0.000000 0.000000 0.000000  0.000000    
       1    39  2   7  20  VERTICAL    1.000000 0.000000 0.000000 0.000000  0.000000    
       1    40  2   8  16  VERTICAL    1.000000 0.000000 0.000000 0.000000  0.000000    
       1    41  2   8  17  VERTICAL    1.000000 0.000000 0.000000 0.000000  0.000000    
       1    42  2   8  18  VERTICAL    1.000000 0.000000 0.000000 0.000000  0.000000    
       1    43  2   8  19  VERTICAL    1.000000 0.000000 0.000000 0.000000  0.000000    
       1    44  2   8  20  VERTICAL    1.000000 0.000000 0.000000 0.000000  0.000000    
       1    45  2   9  16  VERTICAL    1.000000 0.000000 0.000000 0.000000  0.000000    
       1    46  2   9  17  VERTICAL    1.000000 0.000000 0.000000 0.000000  0.000000    
       1    47  2   9  18  VERTICAL    1.000000 0.000000 0.000000 0.000000  0.000000    
       1    48  2   9  19  VERTICAL    1.000000 0.000000 0.000000 0.000000  0.000000    
       1    49  2   9  20  VERTICAL    1.000000 0.000000 0.000000 0.000000  0.000000    
       1    50  2   9  21  VERTICAL    1.000000 0.000000 0.000000 0.000000  0.000000    
       1    51  2  10  16  VERTICAL    1.000000 0.000000 0.000000 0.000000  0.000000    
       1    52  2  10  17  VERTICAL    1.000000 0.000000 0.000000 0.000000  0.000000    
       1    53  2  10  18  VERTICAL    1.000000 0.000000 0.000000 0.000000  0.000000    
       1    54  2  10  19  VERTICAL    1.000000 0.000000 0.000000 0.000000  0.000000    
       1    55  2  10  20  VERTICAL    1.000000 0.000000 0.000000 0.000000  0.000000    
       1    56  2  10  21  VERTICAL    1.000000 0.000000 0.000000 0.000000  0.000000    
       1    57  2  11  17  VERTICAL    1.000000 0.000000 0.000000 0.000000  0.000000    
       1    58  2  11  18  VERTICAL    1.000000 0.000000 0.000000 0.000000  0.000000    
       1    59  2  11  19  VERTICAL    1.000000 0.000000 0.000000 0.000000  0.000000    
       1    60  2  11  20  VERTICAL    1.000000 0.000000 0.000000 0.000000  0.000000    
       1    61  2  11  21  VERTICAL    1.000000 0.000000 0.000000 0.000000  0.000000    
       1    62  2  12  17  VERTICAL    1.000000 0.000000 0.000000 0.000000  0.000000    
       1    63  2  12  18  VERTICAL    1.000000 0.000000 0.000000 0.000000  0.000000    
       1    64  2  12  19  VERTICAL    1.000000 0.000000 0.000000 0.000000  0.000000    
       1    65  2  12  20  VERTICAL    1.000000 0.000000 0.000000 0.000000  0.000000    
       1    66  2  12  21  VERTICAL    1.000000 0.000000 0.000000 0.000000  0.000000    
       1    67  2  13  17  VERTICAL    1.000000 0.000000 0.000000 0.000000  0.000000    
       1    68  2  13  18  VERTICAL    1.000000 0.000000 0.000000 0.000000  0.000000    
       1    69  2  13  19  VERTICAL    1.000000 0.000000 0.000000 0.000000  0.000000    
       1    70  2  13  20  VERTICAL    1.000000 0.000000 0.000000 0.000000  0.000000    
       1    71  2  14  17  VERTICAL    1.000000 0.000000 0.000000 0.000000  0.000000    
       1    72  2  14  18  VERTICAL    1.000000 0.000000 0.000000 0.000000  0.000000    
       1    73  2  14  19  VERTICAL    1.000000 0.000000 0.000000 0.000000  0.000000    
       1    74  2  14  20  VERTICAL    1.000000 0.000000 0.000000 0.000000  0.000000    
       1    75  2  15  17  VERTICAL    1.000000 0.000000 0.000000 0.000000  0.000000    
       1    76  2  15  18  VERTICAL    1.000000 0.000000 0.000000 0.000000  0.000000    
       1    77  2  15  19  VERTICAL    1.000000 0.000000 0.000000 0.000000  0.000000    
       1    78  2  16  18  VERTICAL    1.000000 0.000000 0.000000 0.000000  0.000000    
       2     1  1  18   2  HORIZONTAL  1.000000 0.000000 0.000000 201.8585  405.6650    
       2     2  1  19   3  HORIZONTAL  1.000000 0.000000 0.000000 202.8325  403.7170    
       2     3  1  20   3  HORIZONTAL  1.000000 0.000000 0.000000 202.8325  403.7170    
       2     4  1  21   3  HORIZONTAL  1.000000 0.000000 0.000000 202.8325  403.7170    
       2     5  1  21   3  HORIZONTAL  1.000000 0.000000 0.000000 201.8585  405.6650    
       2     6  1  22   4  HORIZONTAL  1.000000 0.000000 0.000000 202.8325  403.7170    
       2     7  1  22   4  HORIZONTAL  1.000000 0.000000 0.000000 201.8585  405.6650    
       2     8  1  23   5  HORIZONTAL  1.000000 0.000000 0.000000 202.8325  403.7170    
       2     9  1  24   5  HORIZONTAL  1.000000 0.000000 0.000000 202.8325  403.7170    
       2    10  1  25   3  HORIZONTAL  1.000000 0.000000 0.000000 202.8325  403.7170    
       2    11  1  25   3  HORIZONTAL  1.000000 0.000000 0.000000 201.8585  405.6650    
       2    12  1  25   4  HORIZONTAL  1.000000 0.000000 0.000000 201.8585  405.6650    
       2    13  1  26   3  HORIZONTAL  1.000000 0.000000 0.000000 202.8325  403.7170    
       2    14  1  27   1  HORIZONTAL  1.000000 0.000000 0.000000 201.8585  405.6650    
       2    15  1  27   2  HORIZONTAL  1.000000 0.000000 0.000000 201.8585  405.6650    
       2    16  2  19   2  VERTICAL    1.000000 0.000000 0.000000 0.000000  0.000000    
       2    17  2  20   2  VERTICAL    1.000000 0.000000 0.000000 0.000000  0.000000    
       2    18  2  21   2  VERTICAL    1.000000 0.000000 0.000000 0.000000  0.000000    
       2    19  2  22   2  VERTICAL    1.000000 0.000000 0.000000 0.000000  0.000000    
       2    20  2  22   3  VERTICAL    1.000000 0.000000 0.000000 0.000000  0.000000    
       2    21  2  23   1  VERTICAL    1.000000 0.000000 0.000000 0.000000  0.000000    
       2    22  2  23   2  VERTICAL    1.000000 0.000000 0.000000 0.000000  0.000000    
       2    23  2  23   3  VERTICAL    1.000000 0.000000 0.000000 0.000000  0.000000    
       2    24  2  23   4  VERTICAL    1.000000 0.000000 0.000000 0.000000  0.000000    
       2    25  2  24   1  VERTICAL    1.000000 0.000000 0.000000 0.000000  0.000000    
       2    26  2  24   2  VERTICAL    1.000000 0.000000 0.000000 0.000000  0.000000    
       2    27  2  24   3  VERTICAL    1.000000 0.000000 0.000000 0.000000  0.000000    
       2    28  2  24   4  VERTICAL    1.000000 0.000000 0.000000 0.000000  0.000000    
       2    29  2  25   1  VERTICAL    1.000000 0.000000 0.000000 0.000000  0.000000    
       2    30  2  25   2  VERTICAL    1.000000 0.000000 0.000000 0.000000  0.000000    
       2    31  2  26   1  VERTICAL    1.000000 0.000000 0.000000 0.000000  0.000000    
       2    32  2  26   2  VERTICAL    1.000000 0.000000 0.000000 0.000000  0.000000    
END CONNECTIONDATA

BEGIN OUTLETS
#   outletno lakein lakeout couttype     invert      width           rough           slope
           1      1       0  MANNING       44.5   5.000000  0.30000000E-01   0.2187500E-02
END OUTLETS

