# RCH8 input file, prepared by MF5to6 on 1/24/2017 at 17:28:41.

BEGIN Options
  READASARRAYS
  SAVE_FLOWS
  FIXED_CELL
END Options

BEGIN PERIOD 1
  RECHARGE
    CONSTANT   0.47900000E-02
END PERIOD

BEGIN PERIOD 2
  RECHARGE
    CONSTANT   0.52690000E-02
END PERIOD
