# DIS8 input file, prepared by MF5to6 on 1/24/2017 at 17:28:41.

BEGIN Options
  LENGTH_UNITS  UNDEFINED
END Options

BEGIN Dimensions
  NLAY  8
  NROW  36
  NCOL  23
END Dimensions

BEGIN GRIDDATA
  DELR
    CONSTANT    405.665000        DELR
  DELC
    CONSTANT    403.717000        DELC
  TOP LAYERED
    CONSTANT    100.0000    
  BOTM LAYERED
    INTERNAL  FACTOR    1.000000      IPRN  3
   33.34707       33.96223       34.43859       34.86017       34.99027       34.80608       34.90436       34.98863       34.77058       34.74183    
   34.97304       34.89779       34.57696       34.50538       34.79751       34.98536       34.58713       34.42056       34.94514       34.73759    
   34.67215       34.94077       34.63989    
   32.75133       33.69716       34.17713       34.59410       34.72033       34.61828       34.70295       34.76375       34.59791       34.56149    
   34.71222       34.64343       34.37279       34.15080       34.37614       34.49003       34.12191       34.04263       34.40146       34.16639    
   34.08224       34.19166       33.93896    
   32.25763       32.75566       33.59999       33.94608       34.10060       34.19247       34.27281       34.28142       34.12533       34.07158    
   34.09289       34.00967       33.96358       33.67846       33.71398       33.51997       33.49549       33.36049       33.16927       32.97661    
   32.76025       32.61858       32.46337    
   31.62912       31.97909       32.51310       33.05341       33.26409       33.53504       33.65749       33.58127       33.50942       33.44083    
   33.39838       33.32825       33.17526       33.05861       32.71687       32.62728       32.41132       32.21214       32.00966       31.66526    
   31.27454       31.04104       30.76956    
   30.95930       31.14175       31.33884       31.74814       32.28294       32.73977       32.91689       32.84066       32.74922       32.64922    
   32.59395       32.56808       32.23318       32.10137       31.94701       31.79538       31.30180       31.11405       30.87908       30.35243    
   30.10274       30.04617       29.81510    
   30.35912       30.40791       30.44146       30.90915       31.26405       31.60373       32.03640       32.08052       31.90693       31.73585    
   31.69891       31.77370       31.56088       31.46200       31.04266       30.84940       30.66541       30.49949       30.15960       30.02072    
   29.79670       29.83705       29.87598    
   29.60798       29.73910       29.87786       29.96001       30.46720       30.91235       31.11988       31.40622       31.08085       30.67609    
   30.65575       30.84846       31.00697       30.72307       30.57027       30.20175       30.08806       29.83966       29.81214       29.85417    
   29.73167       29.83982       29.89064    
   29.49525       29.65400       29.70131       29.70817       29.85818       30.27061       30.68245       30.58897       30.37623       29.96988    
   29.98578       30.23742       30.44130       30.21641       30.21729       29.94687       29.70000       29.74128       29.70000       29.70000    
   29.70000       29.70000       29.70000    
   29.14460       29.32761       29.58849       29.61653       29.52098       29.67909       30.13648       30.32303       30.14969       29.75963    
   29.76481       30.06365       30.10396       29.89016       29.82277       29.70000       29.70000       29.70000       29.70000       29.70000    
   29.70000       29.70000       29.70000    
   28.05605       28.75081       28.95383       29.17648       29.09495       29.05017       29.70411       29.77194       29.94323       29.92371    
   29.86247       29.84868       29.88270       29.70000       29.70000       29.70000       29.70000       29.70000       29.70000       29.70000    
   29.70000       29.70000       29.70000    
   26.48497       27.04921       27.46248       28.02036       27.84806       28.41560       28.59143       29.50481       29.91873       29.77177    
   30.00219       29.86919       29.70000       29.70000       29.70000       29.70000       29.70000       29.70000       29.70000       29.70000    
   29.70000       29.70000       29.70000    
   24.58254       25.01879       25.18905       26.20109       26.71451       26.88698       27.14997       27.70956       28.54341       29.09773    
   29.70000       29.70000       29.70000       29.70000       29.70000       29.70000       29.70000       29.70000       29.70000       29.70000    
   29.70000       29.70000       29.70000    
   22.75108       23.03183       23.31217       23.55771       23.76405       24.25329       24.78199       26.15136       27.12946       28.02421    
   29.70000       29.70000       29.70000       29.70000       29.70000       29.70000       29.70000       29.70000       29.70000       29.70000    
   29.70000       29.70000       29.70000    
   21.86225       22.01448       22.21569       22.45024       22.69574       22.95530       23.78423       24.73898       25.77802       26.86196    
   28.47788       29.70000       29.70000       29.70000       29.70000       29.70000       29.70000       29.70000       29.70000       29.70000    
   29.70000       29.70000       29.70000    
   20.90865       20.94450       21.42159       21.63431       21.87545       22.13364       22.39964       23.26950       24.33176       25.44293    
   26.70019       28.36718       29.16050       29.70000       29.70000       29.70000       29.70000       29.70000       29.70000       29.70000    
   29.70000       29.70000       29.70000    
   20.55946       20.56268       20.62739       20.72309       21.28952       21.52148       21.75356       21.97391       22.88067       24.01558    
   25.38499       27.30865       28.29508       28.61368       29.23183       29.70000       29.70000       29.70000       29.70000       29.70000    
   29.70000       29.70000       29.70000    
   20.34465       20.32780       20.39870       20.49293       20.57943       20.65180       20.77127       20.92081       21.70264       22.73104    
   23.23864       26.73158       27.88891       28.20666       28.61378       29.24028       29.42056       29.56547       29.63360       29.65668    
   29.62591       29.63475       29.62303    
   20.20000       20.20000       20.20000       20.20000       20.20000       20.20000       20.20000       20.69275       20.80599       21.63382    
   22.72902       24.64039       26.58701       27.16059       28.14555       28.57011       28.92372       29.21032       29.49554       29.61177    
   29.56707       29.66167       29.49791    
   20.20000       20.20000       20.20000       20.20000       20.20000       20.20000       20.20000       20.20000       20.20000       21.31399    
   21.70003       23.36096       24.68642       25.93872       27.01394       27.52439       28.03845       28.74415       29.04657       29.18067    
   29.22141       29.22273       29.02298    
   20.20000       20.20000       20.20000       20.20000       20.20000       20.20000       20.20000       20.20000       20.20000       20.65907    
   21.38103       22.27727       23.90320       24.55712       25.62660       26.53173       27.04636       27.56961       27.99134       28.39213    
   28.43477       28.37862       28.23025    
   20.20000       20.20000       20.20000       20.20000       20.20000       20.20000       20.20000       20.20000       20.20000       20.20000    
   21.06686       21.75914       22.66785       23.62954       24.49022       24.86574       25.61526       26.18266       26.66759       26.89802    
   27.07442       26.91519       26.83581    
   20.20000       20.20000       20.20000       20.20000       20.20000       20.20000       20.20000       20.20000       20.20000       20.20000    
   20.75143       20.97365       21.67653       22.41681       22.92575       23.27066       23.54752       24.43893       25.09199       25.26299    
   24.91548       24.47344       24.68929    
   20.20000       20.20000       20.20000       20.20000       20.20000       20.20000       20.20000       20.20000       20.20000       20.20000    
   20.31845       20.62664       21.22703       21.80555       21.92770       21.48822       21.62145       22.65564       23.63203       23.73006    
   22.84223       21.86355       22.10613    
   20.20000       20.20000       20.20000       20.20000       20.20000       20.20000       20.20000       20.20000       20.20000       20.20000    
   20.19079       20.22231       20.55008       20.99369       21.01184       20.54477       20.37628       21.22906       22.36863       22.44541    
   21.56945       20.34531       20.69992    
   20.20000       20.20000       20.20000       20.20000       20.20000       20.20000       20.20000       20.20000       20.20000       20.11626    
   20.11883       19.95887       20.01943       20.62421       20.57812       20.36559       20.39380       20.96470       21.64537       21.72627    
   21.13243       20.52773       20.76020    
   20.20000       20.20000       20.20000       20.20000       20.20000       20.20000       20.20000       19.94899       19.91899       19.73893    
   19.77765       19.66836       19.30157       19.60158       20.02809       20.47184       20.39246       20.74231       20.99847       21.57873    
   21.35161       21.11114       21.20408    
   20.20000       20.20000       20.20000       20.20000       20.20000       20.20000       19.83297       19.75254       19.31251       19.29059    
   19.27605       18.93645       18.81960       19.16253       19.07719       19.25382       20.17135       20.53214       20.67765       20.78793    
   20.83464       21.34987       21.43791    
   20.12548       20.12310       19.95720       19.79170       19.69400       19.15373       19.03618       18.47670       18.35148       18.30426    
   18.29614       18.21076       18.15856       17.89639       18.36697       18.51129       18.99648       19.44375       20.14173       20.27208    
   20.39428       20.50729       21.27505    
   19.91424       19.89793       19.49126       19.12849       18.79508       18.55027       17.88529       17.67316       17.51375       17.44337    
   17.03301       17.00368       16.73346       16.81801       17.52737       17.65655       18.13391       18.25829       18.73543       19.50808    
   19.67284       19.43860       19.59895    
   19.97411       19.28858       18.48948       17.98698       18.01610       17.30274       16.93857       16.69595       16.54533       16.10526    
   16.04583       16.03564       15.82167       15.96090       16.08946       16.74992       16.83823       17.19094       17.33873       17.49816    
   17.85587       18.02970       19.16379    
   19.22854       17.95234       16.85778       16.64508       16.33855       15.98855       15.81139       15.55770       15.24302       15.14453    
   15.04686       14.80884       14.94299       15.15757       15.31129       15.45894       15.33585       16.28315       16.42149       16.85484    
   17.06505       17.30580       18.16091    
   17.21610       15.48250       14.14090       15.02902       15.39449       15.03579       14.36980       14.33292       14.37433       14.34689    
   14.10708       13.93675       14.17686       14.48867       14.65392       14.52713       14.65209       15.29026       15.44212       15.49093    
   15.99614       16.24548       16.57993    
   15.95278       14.23729       13.11963       14.22253       14.84002       14.39723       13.37087       13.25317       13.69234       13.80613    
   13.31418       13.26209       13.63515       14.02320       14.02401       13.94351       13.95635       14.14885       14.58916       14.63266    
   14.98396       15.21147       15.60230    
   15.71623       14.79154       14.25866       14.57861       14.71607       14.18491       13.24475       13.16196       13.56900       13.53319    
   13.10795       13.06035       13.44156       13.68396       13.69868       13.40227       13.36541       13.42792       13.78131       14.02383    
   13.98969       14.27038       14.73061    
   15.71728       15.36111       15.07428       15.00678       14.83856       14.46602       13.71175       13.60415       13.72819       13.52898    
   13.36874       13.32888       13.55312       13.50804       13.42524       13.23889       13.02142       13.13938       13.48967       13.47522    
   13.29981       13.53869       14.07730    
   15.88491       15.67686       15.46919       15.29282       15.05378       14.50813       14.18960       14.03473       13.97554       13.71378    
   13.58909       13.67990       13.74759       13.75473       13.57384       13.25794       13.07078       13.20407       13.35277       13.21480    
   13.00752       13.17114       13.76003    
    INTERNAL  FACTOR    1.000000      IPRN  3
   18.34707       18.96223       19.43859       19.86017       19.99027       19.80608       19.90436       19.98863       19.77058       19.74183    
   19.97304       19.89779       19.57696       19.50538       19.79751       19.98536       19.58713       19.42056       19.94514       19.73759    
   19.67215       19.94077       19.63989    
   17.75133       18.69716       19.17713       19.59410       19.72033       19.61828       19.70295       19.76375       19.59791       19.56149    
   19.71222       19.64343       19.37279       19.15080       19.37614       19.49003       19.12191       19.04263       19.40146       19.16639    
   19.08224       19.19166       18.93896    
   17.25763       17.75566       18.59999       18.94608       19.10060       19.19247       19.27281       19.28142       19.12533       19.07158    
   19.09289       19.00967       18.96358       18.67846       18.71398       18.51997       18.49549       18.36049       18.16927       17.97661    
   17.76025       17.61858       17.46337    
   16.62912       16.97909       17.51310       18.05341       18.26409       18.53504       18.65749       18.58127       18.50942       18.44083    
   18.39838       18.32825       18.17526       18.05861       17.71687       17.62728       17.41132       17.21214       17.00966       16.66526    
   16.27454       16.04104       15.76956    
   15.95930       16.14175       16.33884       16.74814       17.28294       17.73977       17.91689       17.84066       17.74922       17.64922    
   17.59395       17.56808       17.23318       17.10137       16.94701       16.79538       16.30180       16.11405       15.87908       15.35243    
   15.10274       15.04617       14.81510    
   15.35912       15.40791       15.44146       15.90915       16.26405       16.60373       17.03640       17.08052       16.90693       16.73585    
   16.69891       16.77370       16.56088       16.46200       16.04266       15.84940       15.66541       15.49949       15.15960       15.02072    
   14.79670       14.83705       14.87598    
   14.60798       14.73910       14.87786       14.96001       15.46720       15.91235       16.11988       16.40622       16.08085       15.67609    
   15.65575       15.84846       16.00697       15.72307       15.57027       15.20175       15.08806       14.83966       14.81214       14.85417    
   14.73167       14.83982       14.89064    
   14.49525       14.65400       14.70131       14.70817       14.85818       15.27061       15.68245       15.58897       15.37623       14.96988    
   14.98578       15.23742       15.44130       15.21641       15.21729       14.94687       14.70000       14.74128       14.70000       14.70000    
   14.70000       14.70000       14.70000    
   14.14460       14.32761       14.58849       14.61653       14.52098       14.67909       15.13648       15.32303       15.14969       14.75963    
   14.76481       15.06365       15.10396       14.89016       14.82277       14.70000       14.70000       14.70000       14.70000       14.70000    
   14.70000       14.70000       14.70000    
   13.05605       13.75081       13.95383       14.17648       14.09495       14.05017       14.70411       14.77194       14.94323       14.92371    
   14.86247       14.84868       14.88270       14.70000       14.70000       14.70000       14.70000       14.70000       14.70000       14.70000    
   14.70000       14.70000       14.70000    
   11.48497       12.04921       12.46248       13.02036       12.84806       13.41560       13.59143       14.50481       14.91873       14.77177    
   15.00219       14.86919       14.70000       14.70000       14.70000       14.70000       14.70000       14.70000       14.70000       14.70000    
   14.70000       14.70000       14.70000    
   9.582543       10.01879       10.18905       11.20109       11.71451       11.88698       12.14997       12.70956       13.54341       14.09773    
   14.70000       14.70000       14.70000       14.70000       14.70000       14.70000       14.70000       14.70000       14.70000       14.70000    
   14.70000       14.70000       14.70000    
   7.751079       8.031833       8.312172       8.557709       8.764049       9.253285       9.781989       11.15136       12.12946       13.02421    
   14.70000       14.70000       14.70000       14.70000       14.70000       14.70000       14.70000       14.70000       14.70000       14.70000    
   14.70000       14.70000       14.70000    
   6.862248       7.014481       7.215686       7.450240       7.695735       7.955298       8.784229       9.738983       10.77802       11.86196    
   13.47788       14.70000       14.70000       14.70000       14.70000       14.70000       14.70000       14.70000       14.70000       14.70000    
   14.70000       14.70000       14.70000    
   5.908653       5.944495       6.421594       6.634311       6.875446       7.133643       7.399642       8.269496       9.331756       10.44293    
   11.70019       13.36718       14.16050       14.70000       14.70000       14.70000       14.70000       14.70000       14.70000       14.70000    
   14.70000       14.70000       14.70000    
   5.559465       5.562684       5.627385       5.723095       6.289523       6.521477       6.753561       6.973911       7.880667       9.015585    
   10.38499       12.30865       13.29508       13.61368       14.23183       14.70000       14.70000       14.70000       14.70000       14.70000    
   14.70000       14.70000       14.70000    
   5.344648       5.327800       5.398700       5.492929       5.579435       5.651801       5.771266       5.920810       6.702638       7.731035    
   8.238642       11.73158       12.88891       13.20666       13.61378       14.24028       14.42056       14.56547       14.63360       14.65668    
   14.62591       14.63475       14.62303    
   5.200000       5.200000       5.200000       5.200000       5.200000       5.200000       5.200000       5.692745       5.805988       6.633825    
   7.729021       9.640390       11.58701       12.16059       13.14555       13.57011       13.92372       14.21032       14.49554       14.61177    
   14.56707       14.66167       14.49791    
   5.200000       5.200000       5.200000       5.200000       5.200000       5.200000       5.200000       5.200000       5.200000       6.313995    
   6.700033       8.360961       9.686418       10.93872       12.01394       12.52439       13.03845       13.74415       14.04657       14.18067    
   14.22141       14.22273       14.02298    
   5.200000       5.200000       5.200000       5.200000       5.200000       5.200000       5.200000       5.200000       5.200000       5.659072    
   6.381030       7.277268       8.903196       9.557124       10.62660       11.53173       12.04636       12.56961       12.99134       13.39213    
   13.43477       13.37862       13.23025    
   5.200000       5.200000       5.200000       5.200000       5.200000       5.200000       5.200000       5.200000       5.200000       5.200000    
   6.066860       6.759135       7.667851       8.629540       9.490222       9.865740       10.61526       11.18266       11.66759       11.89802    
   12.07442       11.91519       11.83581    
   5.200000       5.200000       5.200000       5.200000       5.200000       5.200000       5.200000       5.200000       5.200000       5.200000    
   5.751432       5.973646       6.676533       7.416810       7.925747       8.270662       8.547522       9.438932       10.09199       10.26299    
   9.915479       9.473436       9.689291    
   5.200000       5.200000       5.200000       5.200000       5.200000       5.200000       5.200000       5.200000       5.200000       5.200000    
   5.318454       5.626639       6.227031       6.805550       6.927697       6.488216       6.621450       7.655642       8.632026       8.730060    
   7.842227       6.863546       7.106126    
   5.200000       5.200000       5.200000       5.200000       5.200000       5.200000       5.200000       5.200000       5.200000       5.200000    
   5.190789       5.222309       5.550085       5.993690       6.011839       5.544769       5.376276       6.229061       7.368629       7.445414    
   6.569447       5.345308       5.699918    
   5.200000       5.200000       5.200000       5.200000       5.200000       5.200000       5.200000       5.200000       5.200000       5.116264    
   5.118829       4.958870       5.019427       5.624206       5.578118       5.365589       5.393802       5.964697       6.645374       6.726267    
   6.132426       5.527732       5.760205    
   5.200000       5.200000       5.200000       5.200000       5.200000       5.200000       5.200000       4.948995       4.918987       4.738926    
   4.777648       4.668356       4.301572       4.601584       5.028086       5.471837       5.392457       5.742308       5.998466       6.578735    
   6.351611       6.111136       6.204079    
   5.200000       5.200000       5.200000       5.200000       5.200000       5.200000       4.832972       4.752542       4.312511       4.290590    
   4.276052       3.936453       3.819601       4.162530       4.077187       4.253819       5.171353       5.532141       5.677648       5.787927    
   5.834636       6.349871       6.437908    
   5.125484       5.123096       4.957204       4.791697       4.694004       4.153726       4.036180       3.476702       3.351483       3.304259    
   3.296139       3.210763       3.158564       2.896387       3.366968       3.511291       3.996477       4.443755       5.141726       5.272077    
   5.394281       5.507291       6.275047    
   4.914240       4.897933       4.491260       4.128487       3.795081       3.550270       2.885285       2.673155       2.513747       2.443366    
   2.033011       2.003679       1.733464       1.818015       2.527366       2.656552       3.133911       3.258286       3.735429       4.508081    
   4.672841       4.438598       4.598950    
   4.974114       4.288584       3.489485       2.986980       3.016099       2.302741       1.938572       1.695950       1.545332       1.105265    
   1.045826       1.035636      0.8216663      0.9608955       1.089464       1.749921       1.838231       2.190942       2.338727       2.498163    
   2.855868       3.029704       4.163788    
   4.228537       2.952343       1.857781       1.645082       1.338552      0.9885457      0.8113943      0.5577034      0.2430173      0.1445290    
  0.4686292E-01 -0.1911556     -0.5701147E-01  0.1575689      0.3112853      0.4589445      0.3358484       1.283145       1.421485       1.854840    
   2.065049       2.305795       3.160910    
   2.216099      0.4825039     -0.8591032      0.2902012E-01  0.3944857      0.3579324E-01 -0.6302027     -0.6670793     -0.6256723     -0.6531145    
 -0.8929186      -1.063251     -0.8231359     -0.5113297     -0.3460756     -0.4728738     -0.3479069      0.2902590      0.4421164      0.4909349    
  0.9961351       1.245477       1.579926    
  0.9527757     -0.7627091      -1.880373     -0.7774733     -0.1599758     -0.6027688      -1.629129      -1.746833      -1.307663      -1.193875    
  -1.685821      -1.737908      -1.364852     -0.9768049     -0.9759874      -1.056493      -1.043650     -0.8511470     -0.4108432     -0.3673372    
 -0.1603602E-01  0.2114667      0.6023007    
  0.7162291     -0.2084594     -0.7413362     -0.4213850     -0.2839313     -0.8150851      -1.755253      -1.838043      -1.431000      -1.466806    
  -1.892053      -1.939654      -1.558438      -1.316043      -1.301321      -1.597734      -1.634593      -1.572084      -1.218693     -0.9761655    
  -1.010311     -0.7296224     -0.2693949    
  0.7172780      0.3611144      0.7427562E-01  0.6778760E-02 -0.1614416     -0.5339796      -1.288254      -1.395846      -1.271808      -1.471023    
  -1.631260      -1.671119      -1.446882      -1.491960      -1.574764      -1.761106      -1.978585      -1.860623      -1.510333      -1.524777    
  -1.700189      -1.461312     -0.9226963    
  0.8849128      0.6768627      0.4691880      0.2928206      0.5378059E-01 -0.4918746     -0.8103953     -0.9652729      -1.024457      -1.286218    
  -1.410909      -1.320100      -1.252412      -1.245268      -1.426162      -1.742064      -1.929224      -1.795929      -1.647226      -1.785203    
  -1.992481      -1.828864      -1.239974    
    INTERNAL  FACTOR    1.000000      IPRN  3
   3.347000       3.962000       4.439000       4.860000       4.990000       4.806000       4.904000       4.989000       4.771000       4.742000    
   4.973000       4.898000       4.577000       4.505000       4.798000       4.985000       4.587000       4.421000       4.945000       4.738000    
   4.672000       4.941000       4.640000    
   2.751000       3.697000       4.177000       4.594000       4.720000       4.618000       4.703000       4.764000       4.598000       4.561000    
   4.712000       4.643000       4.373000       4.151000       4.376000       4.490000       4.122000       4.043000       4.401000       4.166000    
   4.082000       4.192000       3.939000    
   2.258000       2.756000       3.600000       3.946000       4.101000       4.192000       4.273000       4.281000       4.125000       4.072000    
   4.093000       4.010000       3.964000       3.678000       3.714000       3.520000       3.495000       3.360000       3.169000       2.977000    
   2.760000       2.619000       2.463000    
   1.629000       1.979000       2.513000       3.053000       3.264000       3.535000       3.657000       3.581000       3.509000       3.441000    
   3.398000       3.328000       3.175000       3.059000       2.717000       2.627000       2.411000       2.212000       2.010000       1.665000    
   1.275000       1.041000      0.7696000    
  0.9593000       1.142000       1.339000       1.748000       2.283000       2.740000       2.917000       2.841000       2.749000       2.649000    
   2.594000       2.568000       2.233000       2.101000       1.947000       1.795000       1.302000       1.114000      0.8791000      0.3524000    
  0.1027000      0.4617000E-01 -0.1849000    
  0.3591000      0.4079000      0.4415000      0.9091000       1.264000       1.604000       2.036000       2.081000       1.907000       1.736000    
   1.699000       1.774000       1.561000       1.462000       1.043000      0.8494000      0.6654000      0.4995000      0.1596000      0.2072000E-01
 -0.2033000     -0.1630000     -0.1240000    
 -0.3920000     -0.2609000     -0.1221000     -0.3999000E-01  0.4672000      0.9123000       1.120000       1.406000       1.081000      0.6761000    
  0.6558000      0.8485000       1.007000      0.7231000      0.5703000      0.2017000      0.8806000E-01 -0.1603000     -0.1879000     -0.1458000    
 -0.2683000     -0.1602000     -0.1094000    
 -0.5048000     -0.3460000     -0.2987000     -0.2918000     -0.1418000      0.2706000      0.6824000      0.5890000      0.3762000     -0.3012000E-01
 -0.1422000E-01  0.2374000      0.4413000      0.2164000      0.2173000     -0.5313000E-01 -0.3000000     -0.2587000     -0.3000000     -0.3000000    
 -0.3000000     -0.3000000     -0.3000000    
 -0.8554000     -0.6724000     -0.4115000     -0.3835000     -0.4790000     -0.3209000      0.1365000      0.3230000      0.1497000     -0.2404000    
 -0.2352000      0.6365000E-01  0.1040000     -0.1098000     -0.1772000     -0.3000000     -0.3000000     -0.3000000     -0.3000000     -0.3000000    
 -0.3000000     -0.3000000     -0.3000000    
  -1.944000      -1.249000      -1.046000     -0.8235000     -0.9051000     -0.9498000     -0.2959000     -0.2281000     -0.5677000E-01 -0.7629000E-01
 -0.1375000     -0.1513000     -0.1173000     -0.3000000     -0.3000000     -0.3000000     -0.3000000     -0.3000000     -0.3000000     -0.3000000    
 -0.3000000     -0.3000000     -0.3000000    
  -3.515000      -2.951000      -2.538000      -1.980000      -2.152000      -1.584000      -1.409000     -0.4952000     -0.8127000E-01 -0.2282000    
  0.2193000E-02 -0.1308000     -0.3000000     -0.3000000     -0.3000000     -0.3000000     -0.3000000     -0.3000000     -0.3000000     -0.3000000    
 -0.3000000     -0.3000000     -0.3000000    
  -5.417000      -4.981000      -4.811000      -3.799000      -3.285000      -3.113000      -2.850000      -2.290000      -1.457000     -0.9023000    
 -0.3000000     -0.3000000     -0.3000000     -0.3000000     -0.3000000     -0.3000000     -0.3000000     -0.3000000     -0.3000000     -0.3000000    
 -0.3000000     -0.3000000     -0.3000000    
  -7.249000      -6.968000      -6.688000      -6.442000      -6.236000      -5.747000      -5.218000      -3.849000      -2.871000      -1.976000    