BEGIN options
  BOUNDNAMES
END options

BEGIN dimensions
  MAXBOUND  61
END dimensions

BEGIN period  1
  1 6 19      45.07666267  lake1
  1 6 20      45.07666267  lake1
  1 7 18      45.07666267  lake1
  1 7 19      45.07666267  lake1
  1 7 20      45.07666267  lake1
  1 8 16      45.07666267  lake1
  1 8 17      45.07666267  lake1
  1 8 18      45.07666267  lake1
  1 8 19      45.07666267  lake1
  1 8 20      45.07666267  lake1
  1 9 16      45.07666267  lake1
  1 9 17      45.07666267  lake1
  1 9 18      45.07666267  lake1
  1 9 19      45.07666267  lake1
  1 9 20      45.07666267  lake1
  1 9 21      45.07666267  lake1
  1 10 16      45.07666267  lake1
  1 10 17      45.07666267  lake1
  1 10 18      45.07666267  lake1
  1 10 19      45.07666267  lake1
  1 10 20      45.07666267  lake1
  1 10 21      45.07666267  lake1
  1 11 17      45.07666267  lake1
  1 11 18      45.07666267  lake1
  1 11 19      45.07666267  lake1
  1 11 20      45.07666267  lake1
  1 11 21      45.07666267  lake1
  1 12 17      45.07666267  lake1
  1 12 18      45.07666267  lake1
  1 12 19      45.07666267  lake1
  1 12 20      45.07666267  lake1
  1 12 21      45.07666267  lake1
  1 13 17      45.07666267  lake1
  1 13 18      45.07666267  lake1
  1 13 19      45.07666267  lake1
  1 13 20      45.07666267  lake1
  1 14 17      45.07666267  lake1
  1 14 18      45.07666267  lake1
  1 14 19      45.07666267  lake1
  1 14 20      45.07666267  lake1
  1 15 17      45.07666267  lake1
  1 15 18      45.07666267  lake1
  1 15 19      45.07666267  lake1
  1 16 18      45.07666267  lake1
  1 19 2      37.13589542  lake2
  1 20 2      37.13589542  lake2
  1 21 2      37.13589542  lake2
  1 22 2      37.13589542  lake2
  1 22 3      37.13589542  lake2
  1 23 1      37.13589542  lake2
  1 23 2      37.13589542  lake2
  1 23 3      37.13589542  lake2
  1 23 4      37.13589542  lake2
  1 24 1      37.13589542  lake2
  1 24 2      37.13589542  lake2
  1 24 3      37.13589542  lake2
  1 24 4      37.13589542  lake2
  1 25 1      37.13589542  lake2
  1 25 2      37.13589542  lake2
  1 26 1      37.13589542  lake2
  1 26 2      37.13589542  lake2
END period  1

BEGIN period  2
  1 6 19      45.09942653  lake1
  1 6 20      45.09942653  lake1
  1 7 18      45.09942653  lake1
  1 7 19      45.09942653  lake1
  1 7 20      45.09942653  lake1
  1 8 16      45.09942653  lake1
  1 8 17      45.09942653  lake1
  1 8 18      45.09942653  lake1
  1 8 19      45.09942653  lake1
  1 8 20      45.09942653  lake1
  1 9 16      45.09942653  lake1
  1 9 17      45.09942653  lake1
  1 9 18      45.09942653  lake1
  1 9 19      45.09942653  lake1
  1 9 20      45.09942653  lake1
  1 9 21      45.09942653  lake1
  1 10 16      45.09942653  lake1
  1 10 17      45.09942653  lake1
  1 10 18      45.09942653  lake1
  1 10 19      45.09942653  lake1
  1 10 20      45.09942653  lake1
  1 10 21      45.09942653  lake1
  1 11 17      45.09942653  lake1
  1 11 18      45.09942653  lake1
  1 11 19      45.09942653  lake1
  1 11 20      45.09942653  lake1
  1 11 21      45.09942653  lake1
  1 12 17      45.09942653  lake1
  1 12 18      45.09942653  lake1
  1 12 19      45.09942653  lake1
  1 12 20      45.09942653  lake1
  1 12 21      45.09942653  lake1
  1 13 17      45.09942653  lake1
  1 13 18      45.09942653  lake1
  1 13 19      45.09942653  lake1
  1 13 20      45.09942653  lake1
  1 14 17      45.09942653  lake1
  1 14 18      45.09942653  lake1
  1 14 19      45.09942653  lake1
  1 14 20      45.09942653  lake1
  1 15 17      45.09942653  lake1
  1 15 18      45.09942653  lake1
  1 15 19      45.09942653  lake1
  1 16 18      45.09942653  lake1
  1 19 2      37.24762625  lake2
  1 20 2      37.24762625  lake2
  1 21 2      37.24762625  lake2
  1 22 2      37.24762625  lake2
  1 22 3      37.24762625  lake2
  1 23 1      37.24762625  lake2
  1 23 2      37.24762625  lake2
  1 23 3      37.24762625  lake2
  1 23 4      37.24762625  lake2
  1 24 1      37.24762625  lake2
  1 24 2      37.24762625  lake2
  1 24 3      37.24762625  lake2
  1 24 4      37.24762625  lake2
  1 25 1      37.24762625  lake2
  1 25 2      37.24762625  lake2
  1 26 1      37.24762625  lake2
  1 26 2      37.24762625  lake2
END period  2

