BEGIN Options
  LENGTH_UNITS  undefined
END Options

BEGIN Dimensions
  NLAY  8
  NROW  36
  NCOL  23
END Dimensions

BEGIN GRIDDATA
  delr
    CONSTANT     405.66500000
  delc
    CONSTANT     403.71700000
  top
    CONSTANT     100.00000000
  botm  LAYERED
    INTERNAL  FACTOR  1.0  IPRN  3
          33.34707000      33.96223000      34.43859000      34.86017000      34.99027000      34.80608000      34.90436000      34.98863000      34.77058000      34.74183000      34.97304000      34.89779000      34.57696000      34.50538000      34.79751000      34.98536000      34.58713000      34.42056000      34.94514000      34.73759000
          34.67215000      34.94077000      34.63989000
          32.75133000      33.69716000      34.17713000      34.59410000      34.72033000      34.61828000      34.70295000      34.76375000      34.59791000      34.56149000      34.71222000      34.64343000      34.37279000      34.15080000      34.37614000      34.49003000      34.12191000      34.04263000      34.40146000      34.16639000
          34.08224000      34.19166000      33.93896000
          32.25763000      32.75566000      33.59999000      33.94608000      34.10060000      34.19247000      34.27281000      34.28142000      34.12533000      34.07158000      34.09289000      34.00967000      33.96358000      33.67846000      33.71398000      33.51997000      33.49549000      33.36049000      33.16927000      32.97661000
          32.76025000      32.61858000      32.46337000
          31.62912000      31.97909000      32.51310000      33.05341000      33.26409000      33.53504000      33.65749000      33.58127000      33.50942000      33.44083000      33.39838000      33.32825000      33.17526000      33.05861000      32.71687000      32.62728000      32.41132000      32.21214000      32.00966000      31.66526000
          31.27454000      31.04104000      30.76956000
          30.95930000      31.14175000      31.33884000      31.74814000      32.28294000      32.73977000      32.91689000      32.84066000      32.74922000      32.64922000      32.59395000      32.56808000      32.23318000      32.10137000      31.94701000      31.79538000      31.30180000      31.11405000      30.87908000      30.35243000
          30.10274000      30.04617000      29.81510000
          30.35912000      30.40791000      30.44146000      30.90915000      31.26405000      31.60373000      32.03640000      32.08052000      31.90693000      31.73585000      31.69891000      31.77370000      31.56088000      31.46200000      31.04266000      30.84940000      30.66541000      30.49949000      30.15960000      30.02072000
          29.79670000      29.83705000      29.87598000
          29.60798000      29.73910000      29.87786000      29.96001000      30.46720000      30.91235000      31.11988000      31.40622000      31.08085000      30.67609000      30.65575000      30.84846000      31.00697000      30.72307000      30.57027000      30.20175000      30.08806000      29.83966000      29.81214000      29.85417000
          29.73167000      29.83982000      29.89064000
          29.49525000      29.65400000      29.70131000      29.70817000      29.85818000      30.27061000      30.68245000      30.58897000      30.37623000      29.96988000      29.98578000      30.23742000      30.44130000      30.21641000      30.21729000      29.94687000      29.70000000      29.74128000      29.70000000      29.70000000
          29.70000000      29.70000000      29.70000000
          29.14460000      29.32761000      29.58849000      29.61653000      29.52098000      29.67909000      30.13648000      30.32303000      30.14969000      29.75963000      29.76481000      30.06365000      30.10396000      29.89016000      29.82277000      29.70000000      29.70000000      29.70000000      29.70000000      29.70000000
          29.70000000      29.70000000      29.70000000
          28.05605000      28.75081000      28.95383000      29.17648000      29.09495000      29.05017000      29.70411000      29.77194000      29.94323000      29.92371000      29.86247000      29.84868000      29.88270000      29.70000000      29.70000000      29.70000000      29.70000000      29.70000000      29.70000000      29.70000000
          29.70000000      29.70000000      29.70000000
          26.48497000      27.04921000      27.46248000      28.02036000      27.84806000      28.41560000      28.59143000      29.50481000      29.91873000      29.77177000      30.00219000      29.86919000      29.70000000      29.70000000      29.70000000      29.70000000      29.70000000      29.70000000      29.70000000      29.70000000
          29.70000000      29.70000000      29.70000000
          24.58254000      25.01879000      25.18905000      26.20109000      26.71451000      26.88698000      27.14997000      27.70956000      28.54341000      29.09773000      29.70000000      29.70000000      29.70000000      29.70000000      29.70000000      29.70000000      29.70000000      29.70000000      29.70000000      29.70000000
          29.70000000      29.70000000      29.70000000
          22.75108000      23.03183000      23.31217000      23.55771000      23.76405000      24.25329000      24.78199000      26.15136000      27.12946000      28.02421000      29.70000000      29.70000000      29.70000000      29.70000000      29.70000000      29.70000000      29.70000000      29.70000000      29.70000000      29.70000000
          29.70000000      29.70000000      29.70000000
          21.86225000      22.01448000      22.21569000      22.45024000      22.69574000      22.95530000      23.78423000      24.73898000      25.77802000      26.86196000      28.47788000      29.70000000      29.70000000      29.70000000      29.70000000      29.70000000      29.70000000      29.70000000      29.70000000      29.70000000
          29.70000000      29.70000000      29.70000000
          20.90865000      20.94450000      21.42159000      21.63431000      21.87545000      22.13364000      22.39964000      23.26950000      24.33176000      25.44293000      26.70019000      28.36718000      29.16050000      29.70000000      29.70000000      29.70000000      29.70000000      29.70000000      29.70000000      29.70000000
          29.70000000      29.70000000      29.70000000
          20.55946000      20.56268000      20.62739000      20.72309000      21.28952000      21.52148000      21.75356000      21.97391000      22.88067000      24.01558000      25.38499000      27.30865000      28.29508000      28.61368000      29.23183000      29.70000000      29.70000000      29.70000000      29.70000000      29.70000000
          29.70000000      29.70000000      29.70000000
          20.34465000      20.32780000      20.39870000      20.49293000      20.57943000      20.65180000      20.77127000      20.92081000      21.70264000      22.73104000      23.23864000      26.73158000      27.88891000      28.20666000      28.61378000      29.24028000      29.42056000      29.56547000      29.63360000      29.65668000
          29.62591000      29.63475000      29.62303000
          20.20000000      20.20000000      20.20000000      20.20000000      20.20000000      20.20000000      20.20000000      20.69275000      20.80599000      21.63382000      22.72902000      24.64039000      26.58701000      27.16059000      28.14555000      28.57011000      28.92372000      29.21032000      29.49554000      29.61177000
          29.56707000      29.66167000      29.49791000
          20.20000000      20.20000000      20.20000000      20.20000000      20.20000000      20.20000000      20.20000000      20.20000000      20.20000000      21.31399000      21.70003000      23.36096000      24.68642000      25.93872000      27.01394000      27.52439000      28.03845000      28.74415000      29.04657000      29.18067000
          29.22141000      29.22273000      29.02298000
          20.20000000      20.20000000      20.20000000      20.20000000      20.20000000      20.20000000      20.20000000      20.20000000      20.20000000      20.65907000      21.38103000      22.27727000      23.90320000      24.55712000      25.62660000      26.53173000      27.04636000      27.56961000      27.99134000      28.39213000
          28.43477000      28.37862000      28.23025000
          20.20000000      20.20000000      20.20000000      20.20000000      20.20000000      20.20000000      20.20000000      20.20000000      20.20000000      20.20000000      21.06686000      21.75914000      22.66785000      23.62954000      24.49022000      24.86574000      25.61526000      26.18266000      26.66759000      26.89802000
          27.07442000      26.91519000      26.83581000
          20.20000000      20.20000000      20.20000000      20.20000000      20.20000000      20.20000000      20.20000000      20.20000000      20.20000000      20.20000000      20.75143000      20.97365000      21.67653000      22.41681000      22.92575000      23.27066000      23.54752000      24.43893000      25.09199000      25.26299000
          24.91548000      24.47344000      24.68929000
          20.20000000      20.20000000      20.20000000      20.20000000      20.20000000      20.20000000      20.20000000      20.20000000      20.20000000      20.20000000      20.31845000      20.62664000      21.22703000      21.80555000      21.92770000      21.48822000      21.62145000      22.65564000      23.63203000      23.73006000
          22.84223000      21.86355000      22.10613000
          20.20000000      20.20000000      20.20000000      20.20000000      20.20000000      20.20000000      20.20000000      20.20000000      20.20000000      20.20000000      20.19079000      20.22231000      20.55008000      20.99369000      21.01184000      20.54477000      20.37628000      21.22906000      22.36863000      22.44541000
          21.56945000      20.34531000      20.69992000
          20.20000000      20.20000000      20.20000000      20.20000000      20.20000000      20.20000000      20.20000000      20.20000000      20.20000000      20.11626000      20.11883000      19.95887000      20.01943000      20.62421000      20.57812000      20.36559000      20.39380000      20.96470000      21.64537000      21.72627000
          21.13243000      20.52773000      20.76020000
          20.20000000      20.20000000      20.20000000      20.20000000      20.20000000      20.20000000      20.20000000      19.94899000      19.91899000      19.73893000      19.77765000      19.66836000      19.30157000      19.60158000      20.02809000      20.47184000      20.39246000      20.74231000      20.99847000      21.57873000
          21.35161000      21.11114000      21.20408000
          20.20000000      20.20000000      20.20000000      20.20000000      20.20000000      20.20000000      19.83297000      19.75254000      19.31251000      19.29059000      19.27605000      18.93645000      18.81960000      19.16253000      19.07719000      19.25382000      20.17135000      20.53214000      20.67765000      20.78793000
          20.83464000      21.34987000      21.43791000
          20.12548000      20.12310000      19.95720000      19.79170000      19.69400000      19.15373000      19.03618000      18.47670000      18.35148000      18.30426000      18.29614000      18.21076000      18.15856000      17.89639000      18.36697000      18.51129000      18.99648000      19.44375000      20.14173000      20.27208000
          20.39428000      20.50729000      21.27505000
          19.91424000      19.89793000      19.49126000      19.12849000      18.79508000      18.55027000      17.88529000      17.67316000      17.51375000      17.44337000      17.03301000      17.00368000      16.73346000      16.81801000      17.52737000      17.65655000      18.13391000      18.25829000      18.73543000      19.50808000
          19.67284000      19.43860000      19.59895000
          19.97411000      19.28858000      18.48948000      17.98698000      18.01610000      17.30274000      16.93857000      16.69595000      16.54533000      16.10526000      16.04583000      16.03564000      15.82167000      15.96090000      16.08946000      16.74992000      16.83823000      17.19094000      17.33873000      17.49816000
          17.85587000      18.02970000      19.16379000
          19.22854000      17.95234000      16.85778000      16.64508000      16.33855000      15.98855000      15.81139000      15.55770000      15.24302000      15.14453000      15.04686000      14.80884000      14.94299000      15.15757000      15.31129000      15.45894000      15.33585000      16.28315000      16.42149000      16.85484000
          17.06505000      17.30580000      18.16091000
          17.21610000      15.48250000      14.14090000      15.02902000      15.39449000      15.03579000      14.36980000      14.33292000      14.37433000      14.34689000      14.10708000      13.93675000      14.17686000      14.48867000      14.65392000      14.52713000      14.65209000      15.29026000      15.44212000      15.49093000
          15.99614000      16.24548000      16.57993000
          15.95278000      14.23729000      13.11963000      14.22253000      14.84002000      14.39723000      13.37087000      13.25317000      13.69234000      13.80613000      13.31418000      13.26209000      13.63515000      14.02320000      14.02401000      13.94351000      13.95635000      14.14885000      14.58916000      14.63266000
          14.98396000      15.21147000      15.60230000
          15.71623000      14.79154000      14.25866000      14.57861000      14.71607000      14.18491000      13.24475000      13.16196000      13.56900000      13.53319000      13.10795000      13.06035000      13.44156000      13.68396000      13.69868000      13.40227000      13.36541000      13.42792000      13.78131000      14.02383000
          13.98969000      14.27038000      14.73061000
          15.71728000      15.36111000      15.07428000      15.00678000      14.83856000      14.46602000      13.71175000      13.60415000      13.72819000      13.52898000      13.36874000      13.32888000      13.55312000      13.50804000      13.42524000      13.23889000      13.02142000      13.13938000      13.48967000      13.47522000
          13.29981000      13.53869000      14.07730000
          15.88491000      15.67686000      15.46919000      15.29282000      15.05378000      14.50813000      14.18960000      14.03473000      13.97554000      13.71378000      13.58909000      13.67990000      13.74759000      13.75473000      13.57384000      13.25794000      13.07078000      13.20407000      13.35277000      13.21480000
          13.00752000      13.17114000      13.76003000
    INTERNAL  FACTOR  1.0  IPRN  3
          18.34707000      18.96223000      19.43859000      19.86017000      19.99027000      19.80608000      19.90436000      19.98863000      19.77058000      19.74183000      19.97304000      19.89779000      19.57696000      19.50538000      19.79751000      19.98536000      19.58713000      19.42056000      19.94514000      19.73759000
          19.67215000      19.94077000      19.63989000
          17.75133000      18.69716000      19.17713000      19.59410000      19.72033000      19.61828000      19.70295000      19.76375000      19.59791000      19.56149000      19.71222000      19.64343000      19.37279000      19.15080000      19.37614000      19.49003000      19.12191000      19.04263000      19.40146000      19.16639000
          19.08224000      19.19166000      18.93896000
          17.25763000      17.75566000      18.59999000      18.94608000      19.10060000      19.19247000      19.27281000      19.28142000      19.12533000      19.07158000      19.09289000      19.00967000      18.96358000      18.67846000      18.71398000      18.51997000      18.49549000      18.36049000      18.16927000      17.97661000
          17.76025000      17.61858000      17.46337000
          16.62912000      16.97909000      17.51310000      18.05341000      18.26409000      18.53504000      18.65749000      18.58127000      18.50942000      18.44083000      18.39838000      18.32825000      18.17526000      18.05861000      17.71687000      17.62728000      17.41132000      17.21214000      17.00966000      16.66526000
          16.27454000      16.04104000      15.76956000
          15.95930000      16.14175000      16.33884000      16.74814000      17.28294000      17.73977000      17.91689000      17.84066000      17.74922000      17.64922000      17.59395000      17.56808000      17.23318000      17.10137000      16.94701000      16.79538000      16.30180000      16.11405000      15.87908000      15.35243000
          15.10274000      15.04617000      14.81510000
          15.35912000      15.40791000      15.44146000      15.90915000      16.26405000      16.60373000      17.03640000      17.08052000      16.90693000      16.73585000      16.69891000      16.77370000      16.56088000      16.46200000      16.04266000      15.84940000      15.66541000      15.49949000      15.15960000      15.02072000
          14.79670000      14.83705000      14.87598000
          14.60798000      14.73910000      14.87786000      14.96001000      15.46720000      15.91235000      16.11988000      16.40622000      16.08085000      15.67609000      15.65575000      15.84846000      16.00697000      15.72307000      15.57027000      15.20175000      15.08806000      14.83966000      14.81214000      14.85417000
          14.73167000      14.83982000      14.89064000
          14.49525000      14.65400000      14.70131000      14.70817000      14.85818000      15.27061000      15.68245000      15.58897000      15.37623000      14.96988000      14.98578000      15.23742000      15.44130000      15.21641000      15.21729000      14.94687000      14.70000000      14.74128000      14.70000000      14.70000000
          14.70000000      14.70000000      14.70000000
          14.14460000      14.32761000      14.58849000      14.61653000      14.52098000      14.67909000      15.13648000      15.32303000      15.14969000      14.75963000      14.76481000      15.06365000      15.10396000      14.89016000      14.82277000      14.70000000      14.70000000      14.70000000      14.70000000      14.70000000
          14.70000000      14.70000000      14.70000000
          13.05605000      13.75081000      13.95383000      14.17648000      14.09495000      14.05017000      14.70411000      14.77194000      14.94323000      14.92371000      14.86247000      14.84868000      14.88270000      14.70000000      14.70000000      14.70000000      14.70000000      14.70000000      14.70000000      14.70000000
          14.70000000      14.70000000      14.70000000
          11.48497000      12.04921000      12.46248000      13.02036000      12.84806000      13.41560000      13.59143000      14.50481000      14.91873000      14.77177000      15.00219000      14.86919000      14.70000000      14.70000000      14.70000000      14.70000000      14.70000000      14.70000000      14.70000000      14.70000000
          14.70000000      14.70000000      14.70000000
           9.58254300      10.01879000      10.18905000      11.20109000      11.71451000      11.88698000      12.14997000      12.70956000      13.54341000      14.09773000      14.70000000      14.70000000      14.70000000      14.70000000      14.70000000      14.70000000      14.70000000      14.70000000      14.70000000      14.70000000
          14.70000000      14.70000000      14.70000000
           7.75107900       8.03183300       8.31217200       8.55770900       8.76404900       9.25328500       9.78198900      11.15136000      12.12946000      13.02421000      14.70000000      14.70000000      14.70000000      14.70000000      14.70000000      14.70000000      14.70000000      14.70000000      14.70000000      14.70000000
          14.70000000      14.70000000      14.70000000
           6.86224800       7.01448100       7.21568600       7.45024000       7.69573500       7.95529800       8.78422900       9.73898300      10.77802000      11.86196000      13.47788000      14.70000000      14.70000000      14.70000000      14.70000000      14.70000000      14.70000000      14.70000000      14.70000000      14.70000000
          14.70000000      14.70000000      14.70000000
           5.90865300       5.94449500       6.42159400       6.63431100       6.87544600       7.13364300       7.39964200       8.26949600       9.33175600      10.44293000      11.70019000      13.36718000      14.16050000      14.70000000      14.70000000      14.70000000      14.70000000      14.70000000      14.70000000      14.70000000
          14.70000000      14.70000000      14.70000000
           5.55946500       5.56268400       5.62738500       5.72309500       6.28952300       6.52147700       6.75356100       6.97391100       7.88066700       9.01558500      10.38499000      12.30865000      13.29508000      13.61368000      14.23183000      14.70000000      14.70000000      14.70000000      14.70000000      14.70000000
          14.70000000      14.70000000      14.70000000
           5.34464800       5.32780000       5.39870000       5.49292900       5.57943500       5.65180100       5.77126600       5.92081000       6.70263800       7.73103500       8.23864200      11.73158000      12.88891000      13.20666000      13.61378000      14.24028000      14.42056000      14.56547000      14.63360000      14.65668000
          14.62591000      14.63475000      14.62303000
           5.20000000       5.20000000       5.20000000       5.20000000       5.20000000       5.20000000       5.20000000       5.69274500       5.80598800       6.63382500       7.72902100       9.64039000      11.58701000      12.16059000      13.14555000      13.57011000      13.92372000      14.21032000      14.49554000      14.61177000
          14.56707000      14.66167000      14.49791000
           5.20000000       5.20000000       5.20000000       5.20000000       5.20000000       5.20000000       5.20000000       5.20000000       5.20000000       6.31399500       6.70003300       8.36096100       9.68641800      10.93872000      12.01394000      12.52439000      13.03845000      13.74415000      14.04657000      14.18067000
          14.22141000      14.22273000      14.02298000
           5.20000000       5.20000000       5.20000000       5.20000000       5.20000000       5.20000000       5.20000000       5.20000000       5.20000000       5.65907200       6.38103000       7.27726800       8.90319600       9.55712400      10.62660000      11.53173000      12.04636000      12.56961000      12.99134000      13.39213000
          13.43477000      13.37862000      13.23025000
           5.20000000       5.20000000       5.20000000       5.20000000       5.20000000       5.20000000       5.20000000       5.20000000       5.20000000       5.20000000       6.06686000       6.75913500       7.66785100       8.62954000       9.49022200       9.86574000      10.61526000      11.18266000      11.66759000      11.89802000
          12.07442000      11.91519000      11.83581000
           5.20000000       5.20000000       5.20000000       5.20000000       5.20000000       5.20000000       5.20000000       5.20000000       5.20000000       5.20000000       5.75143200       5.97364600       6.67653300       7.41681000       7.92574700       8.27066200       8.54752200       9.43893200      10.09199000      10.26299000
           9.91547900       9.47343600       9.68929100
           5.20000000       5.20000000       5.20000000       5.20000000       5.20000000       5.20000000       5.20000000       5.20000000       5.20000000       5.20000000       5.31845400       5.62663900       6.22703100       6.80555000       6.92769700       6.48821600       6.62145000       7.65564200       8.63202600       8.73006000
           7.84222700       6.86354600       7.10612600
           5.20000000       5.20000000       5.20000000       5.20000000       5.20000000       5.20000000       5.20000000       5.20000000       5.20000000       5.20000000       5.19078900       5.22230900       5.55008500       5.99369000       6.01183900       5.54476900       5.37627600       6.22906100       7.36862900       7.44541400
           6.56944700       5.34530800       5.69991800
           5.20000000       5.20000000       5.20000000       5.20000000       5.20000000       5.20000000       5.20000000       5.20000000       5.20000000       5.11626400       5.11882900       4.95887000       5.01942700       5.62420600       5.57811800       5.36558900       5.39380200       5.96469700       6.64537400       6.72626700
           6.13242600       5.52773200       5.76020500
           5.20000000       5.20000000       5.20000000       5.20000000       5.20000000       5.20000000       5.20000000       4.94899500       4.91898700       4.73892600       4.77764800       4.66835600       4.30157200       4.60158400       5.02808600       5.47183700       5.39245700       5.74230800       5.99846600       6.57873500
           6.35161100       6.11113600       6.20407900
           5.20000000       5.20000000       5.20000000       5.20000000       5.20000000       5.20000000       4.83297200       4.75254200       4.31251100       4.29059000       4.27605200       3.93645300       3.81960100       4.16253000       4.07718700       4.25381900       5.17135300       5.53214100       5.67764800       5.78792700
           5.83463600       6.34987100       6.43790800
           5.12548400       5.12309600       4.95720400       4.79169700       4.69400400       4.15372600       4.03618000       3.47670200       3.35148300       3.30425900       3.29613900       3.21076300       3.15856400       2.89638700       3.36696800       3.51129100       3.99647700       4.44375500       5.14172600       5.27207700
           5.39428100       5.50729100       6.27504700
           4.91424000       4.89793300       4.49126000       4.12848700       3.79508100       3.55027000       2.88528500       2.67315500       2.51374700       2.44336600       2.03301100       2.00367900       1.73346400       1.81801500       2.52736600       2.65655200       3.13391100       3.25828600       3.73542900       4.50808100
           4.67284100       4.43859800       4.59895000
           4.97411400       4.28858400       3.48948500       2.98698000       3.01609900       2.30274100       1.93857200       1.69595000       1.54533200       1.10526500       1.04582600       1.03563600       0.82166630       0.96089550       1.08946400       1.74992100       1.83823100       2.19094200       2.33872700       2.49816300
           2.85586800       3.02970400       4.16378800
           4.22853700       2.95234300       1.85778100       1.64508200       1.33855200       0.98854570       0.81139430       0.55770340       0.24301730       0.14452900       0.04686292      -0.19115560      -0.05701147       0.15756890       0.31128530       0.45894450       0.33584840       1.28314500       1.42148500       1.85484000
           2.06504900       2.30579500       3.16091000
           2.21609900       0.48250390      -0.85910320       0.02902012       0.39448570       0.03579324      -0.63020270      -0.66707930      -0.62567230      -0.65311450      -0.89291860      -1.06325100      -0.82313590      -0.51132970      -0.34607560      -0.47287380      -0.34790690       0.29025900       0.44211640       0.49093490
           0.99613510       1.24547700       1.57992600
           0.95277570      -0.76270910      -1.88037300      -0.77747330      -0.15997580      -0.60276880      -1.62912900      -1.74683300      -1.30766300      -1.19387500      -1.68582100      -1.73790800      -1.36485200      -0.97680490      -0.97598740      -1.05649300      -1.04365000      -0.85114700      -0.41084320      -0.36733720
          -0.01603602       0.21146670       0.60230070
           0.71622910      -0.20845940      -0.74133620      -0.42138500      -0.28393130      -0.81508510      -1.75525300      -1.83804300      -1.43100000      -1.46680600      -1.89205300      -1.93965400      -1.55843800      -1.31604300      -1.30132100      -1.59773400      -1.63459300      -1.57208400      -1.21869300      -0.97616550
          -1.01031100      -0.72962240      -0.26939490
           0.71727800       0.36111440       0.07427562       0.00677876      -0.16144160      -0.53397960      -1.28825400      -1.39584600      -1.27180800      -1.47102300      -1.63126000      -1.67111900      -1.44688200      -1.49196000      -1.57476400      -1.76110600      -1.97858500      -1.86062300      -1.51033300      -1.52477700
          -1.70018900      -1.46131200      -0.92269630
           0.88491280       0.67686270       0.46918800       0.29282060       0.05378059      -0.49187460      -0.81039530      -0.96527290      -1.02445700      -1.28621800      -1.41090900      -1.32010000      -1.25241200      -1.24526800      -1.42616200      -1.74206400      -1.92922400      -1.79592900      -1.64722600      -1.78520300
          -1.99248100      -1.82886400      -1.23997400
    INTERNAL  FACTOR  1.0  IPRN  3
           3.34700000       3.96200000       4.43900000       4.86000000       4.99000000       4.80600000       4.90400000       4.98900000       4.77100000       4.74200000       4.97300000       4.89800000       4.57700000       4.50500000       4.79800000       4.98500000       4.58700000       4.42100000       4.94500000       4.73800000
           4.67200000       4.94100000       4.64000000
           2.75100000       3.69700000       4.17700000       4.59400000       4.72000000       4.61800000       4.70300000       4.76400000       4.59800000       4.56100000       4.71200000       4.64300000       4.37300000       4.15100000       4.37600000       4.49000000       4.12200000       4.04300000       4.40100000       4.16600000