# OC8 input file, prepared by MF5to6 on 1/24/2017 at 17:28:41.

BEGIN Options
  BUDGET FILEOUT  ex06.cbc
  HEAD FILEOUT  ex06.hds
  HEAD PRINT_FORMAT  COLUMNS 10  WIDTH 11  DIGITS 4  GENERAL             
END Options

BEGIN PERIOD 1
  SAVE BUDGET ALL
  PRINT BUDGET ALL
  SAVE HEAD ALL
END PERIOD
