# IC8 input file, prepared by MF5to6 on 1/24/2017 at 17:28:41.

BEGIN Options
END Options

BEGIN GRIDDATA
  STRT LAYERED
    INTERNAL  FACTOR    1.000000      IPRN  1
   0.000000       0.000000       0.000000       50.00000       50.00000       50.00000       50.00000       50.00000       50.00000       50.00000    
   50.00000       50.10000       50.15000       50.15000       50.10000       50.00000       50.00000       50.00000       50.00000       50.00000    
   50.00000       49.94077       49.63989    
   0.000000       0.000000       49.17713       49.59410       49.72033       49.61828       49.70295       49.76375       49.59791       49.56149    
   49.71222       49.64343       49.37279       49.15080       49.37614       49.49003       49.12191       49.04263       49.40146       49.16639    
   49.08224       49.19166       48.93896    
   0.000000       0.000000       48.59999       48.94608       49.10060       49.19247       49.27281       49.28142       49.12533       49.07158    
   49.09289       49.00967       48.96358       48.67846       48.71398       48.51997       48.49549       48.36049       48.16927       47.97661    
   47.76025       47.61858       47.46337    
   0.000000       0.000000       47.51310       48.05341       48.26409       48.53504       48.65749       48.58127       48.50942       48.44083    
   48.39838       48.32825       48.17526       48.05861       47.71687       47.62728       47.41132       47.21214       47.00966       46.66526    
   46.27454       46.04104       45.76956    
   0.000000       0.000000       46.33884       46.74814       47.28294       47.73977       47.91689       47.84066       47.74922       47.64922    
   47.59395       47.56808       47.23318       47.10137       46.94701       46.79538       46.30180       46.11405       45.87908       45.35243    
   45.10274       45.04617       44.81510    
   0.000000       0.000000       45.44146       45.90915       46.26405       46.60373       47.03640       47.08052       46.90693       46.73585    
   46.69891       46.77370       46.56088       46.46200       46.04266       45.84940       45.66541       44.70000       44.70000       44.70000    
   44.70000       44.83705       44.87598    
   0.000000       0.000000       44.87786       44.96001       45.46720       45.91235       46.11988       46.40622       46.08085       45.67609    
   45.65575       45.84846       46.00697       45.72307       45.57027       45.20175       44.70000       44.70000       44.70000       44.70000    
   44.70000       44.83982       44.89064    
   0.000000       0.000000       44.70131       44.70817       44.85818       45.27061       45.68245       45.58897       45.37623       44.96988    
   44.98578       45.23742       45.44130       45.21641       44.70000       44.70000       44.70000       44.70000       44.70000       44.70000    
   44.70000       44.70000       44.70000    
   0.000000       0.000000       44.58849       44.61653       44.52098       44.67909       45.13648       45.32303       45.14969       44.75963    
   44.76481       45.06365       45.10396       44.89016       44.70000       44.70000       44.70000       44.70000       44.70000       44.70000    
   44.70000       44.70000       44.70000    
   0.000000       0.000000       43.95383       44.17648       44.09495       44.05017       44.70411       44.77194       44.94323       44.92371    
   44.86247       44.84868       44.88270       44.70000       44.70000       44.70000       44.70000       44.70000       44.70000       44.70000    
   44.70000       44.70000       44.70000    
   0.000000       0.000000       42.46248       43.02036       42.84806       43.41560       43.59143       44.50481       44.91873       44.77177    
   45.00219       44.86919       44.70000       44.70000       44.70000       44.70000       44.70000       44.70000       44.70000       44.70000    
   44.70000       44.70000       44.70000    
   0.000000       40.01879       40.18905       41.20109       41.71451       41.88698       42.14997       42.70956       43.54341       44.09773    
   44.70000       44.70000       44.70000       44.70000       44.70000       44.70000       44.70000       44.70000       44.70000       44.70000    
   44.70000       44.70000       44.70000    
   0.000000       38.03183       38.31217       38.55771       38.76405       39.25329       39.78199       41.15136       42.12946       43.02421    
   44.70000       44.70000       44.70000       44.70000       44.70000       44.70000       44.70000       44.70000       44.70000       44.70000    
   44.70000       44.70000       44.70000    
   0.000000       37.01448       37.21569       37.45024       37.69574       37.95530       38.78423       39.73898       40.77802       41.86196    
   43.47788       44.70000       44.70000       44.70000       44.70000       44.70000       44.70000       44.70000       44.70000       44.70000    
   44.70000       44.70000       44.70000    
   0.000000       35.94450       36.42159       36.63431       36.87545       37.13364       37.39964       38.26950       39.33176       40.44293    
   41.70019       43.36718       44.16050       44.70000       44.70000       44.70000       44.70000       44.70000       44.70000       44.70000    
   44.70000       44.70000       44.70000    
   0.000000       35.56268       35.62739       35.72309       36.28952       36.52148       36.75356       36.97391       37.88067       39.01558    
   40.38499       42.30865       43.29508       43.61368       44.23183       44.70000       44.70000       44.70000       44.70000       44.70000    
   44.70000       44.70000       44.70000    
   0.000000       35.32780       35.39870       35.49293       35.57943       35.65180       35.77127       35.92081       36.70264       37.73104    
   38.23864       41.73158       42.88891       43.20666       43.61378       44.24028       44.42056       44.56547       44.63360       44.65668    
   44.62591       44.63475       44.62303    
   0.000000       35.20000       35.20000       35.20000       35.20000       35.20000       35.20000       35.69275       35.80599       36.63382    
   37.72902       39.64039       41.58701       42.16059       43.14555       43.57011       43.92372       44.21032       44.49554       44.61177    
   44.56707       44.66167       44.49791    
   0.000000       35.30000       35.20000       35.20000       35.20000       35.20000       35.20000       35.20000       35.20000       36.31399    
   36.70003       38.36096       39.68642       40.93872       42.01394       42.52439       43.03845       43.74415       44.04657       44.18067    
   44.22141       44.22273       44.02298    
   0.000000       35.30000       35.20000       35.20000       35.20000       35.20000       35.20000       35.20000       35.20000       35.65907    
   36.38103       37.27727       38.90320       39.55712       40.62660       41.53173       42.04636       42.56961       42.99134       43.39213    
   43.43477       43.37862       43.23025    
   0.000000       35.30000       35.30000       35.20000       35.20000       35.20000       35.20000       35.20000       35.20000       35.20000    
   36.06686       36.75914       37.66785       38.62954       39.49022       39.86574       40.61526       41.18266       41.66759       41.89802    
   42.07442       41.91519       41.83581    
   0.000000       35.30000       35.30000       35.30000       35.20000       35.20000       35.20000       35.20000       35.20000       35.20000    
   35.75143       35.97365       36.67653       37.41681       37.92575       38.27066       38.54752       39.43893       40.09199       40.26299    
   39.91548       39.47344       39.68929    
   35.30000       35.30000       35.30000       35.30000       35.30000       35.20000       35.20000       35.20000       35.20000       35.20000    
   35.31845       35.62664       36.22703       36.80555       36.92770       36.48822       36.62145       37.65564       38.63203       38.73006    
   37.84223       36.86355       37.10613    
   35.30000       35.30000       35.30000       35.30000       35.30000       35.20000       35.20000       35.20000       35.20000       35.20000    
   35.19079       35.22231       35.55008       35.99369       36.01184       35.54477       35.37628       36.22906       37.36863       37.44541    
   36.56945       35.34531       35.69992    
   35.30000       35.30000       35.30000       35.30000       35.20000       35.20000       35.20000       35.20000       35.20000       35.11626    
   35.11883       34.95887       35.01943       35.62421       35.57812       35.36559       35.39380       35.96470       36.64537       36.72627    
   36.13243       35.52773       35.76020    
   35.30000       35.30000       35.20000       35.20000       35.20000       35.20000       35.20000       34.94899       34.91899       34.73893    
   34.77765       34.66836       34.30157       34.60158       35.02809       35.47184       35.39246       35.74231       35.99847       36.57873    
   36.35161       36.11114       36.20408    
   35.30000       35.30000       35.20000       35.20000       35.20000       35.20000       34.83297       34.75254       34.31251       34.29059    
   34.27605       33.93645       33.81960       34.16253       34.07719       34.25382       35.17135       35.53214       35.67765       35.78793    
   35.83464       36.34987       36.43791    
   35.12548       35.12310       34.95720       34.79170       34.69400       34.15373       34.03618       33.47670       33.35148       33.30426    
   33.29614       33.21076       33.15856       32.89639       33.36697       33.51129       33.99648       34.44375       35.14173       35.27208    
   35.39428       35.50729       36.27505    
   34.91424       34.89793       34.49126       34.12849       33.79508       33.55027       32.88529       32.67316       32.51375       32.44337    
   32.03301       32.00368       31.73346       31.81801       32.52737       32.65655       33.13391       33.25829       33.73543       34.50808    
   34.67284       34.43860       34.59895    
   34.97411       34.28858       33.48948       32.98698       33.01610       32.30274       31.93857       31.69595       31.54533       31.10526    
   31.04583       31.03564       30.82167       30.96090       31.08946       31.74992       31.83823       32.19094       32.33873       32.49816    
   32.85587       33.02970       34.16379    
   34.22854       32.95234       31.85778       31.64508       31.33855       30.98855       30.81139       30.55770       30.24302       30.14453    
   30.04686       29.80884       29.94299       30.15757       30.31129       30.45894       30.33585       31.28315       31.42149       31.85484    
   32.06505       32.30580       33.16091    
   28.00000       28.00000       28.00000       28.00000       30.39449       30.03579       29.36980       29.33292       29.37433       29.34689    
   29.10708       28.93675       29.17686       29.48867       29.65392       29.52713       29.65209       30.29026       30.44212       30.49093    
   30.99614       31.24548       31.57993    
   28.00000       28.00000       28.00000       28.00000       28.00000       28.00000       28.00000       28.00000       28.00000       28.00000    
   28.00000       28.26209       28.63515       29.02320       29.02401       28.94351       28.95635       29.14885       29.58916       29.63266    
   29.98396       30.21147       30.60230    
   0.000000       0.000000       0.000000       0.000000       0.000000       0.000000       0.000000       28.00000       28.00000       28.00000    
   28.00000       28.00000       28.00000       28.00000       28.00000       28.00000       28.00000       28.00000       28.00000       29.02383    
   28.98969       29.27038       29.73061    
   0.000000       0.000000       0.000000       0.000000       0.000000       0.000000       0.000000       0.000000       0.000000       0.000000    
   0.000000       0.000000       0.000000       28.00000       28.00000       28.00000       28.00000       28.00000       28.00000       28.00000    
   28.00000       28.00000       28.00000    
   0.000000       0.000000       0.000000       0.000000       0.000000       0.000000       0.000000       0.000000       0.000000       0.000000    
   0.000000       0.000000       0.000000       0.000000       0.000000       0.000000       0.000000       0.000000       0.000000       0.000000    
   28.00000       28.00000       28.00000    
    INTERNAL  FACTOR    1.000000      IPRN  1
   0.000000       0.000000       0.000000       50.00000       50.00000       50.00000       50.00000       50.00000       50.00000       50.00000    
   50.00000       50.10000       50.15000       50.15000       50.10000       50.00000       50.00000       50.00000       50.00000       50.00000    
   50.00000       49.94077       49.63989    
   0.000000       0.000000       49.17713       49.59410       49.72033       49.61828       49.70295       49.76375       49.59791       49.56149    
   49.71222       49.64343       49.37279       49.15080       49.37614       49.49003       49.12191       49.04263       49.40146       49.16639    
   49.08224       49.19166       48.93896    
   0.000000       0.000000       48.59999       48.94608       49.10060       49.19247       49.27281       49.28142       49.12533       49.07158    
   49.09289       49.00967       48.96358       48.67846       48.71398       48.51997       48.49549       48.36049       48.16927       47.97661    
   47.76025       47.61858       47.46337    
   0.000000       0.000000       47.51310       48.05341       48.26409       48.53504       48.65749       48.58127       48.50942       48.44083    
   48.39838       48.32825       48.17526       48.05861       47.71687       47.62728       47.41132       47.21214       47.00966       46.66526    
   46.27454       46.04104       45.76956    
   0.000000       0.000000       46.33884       46.74814       47.28294       47.73977       47.91689       47.84066       47.74922       47.64922    
   47.59395       47.56808       47.23318       47.10137       46.94701       46.79538       46.30180       46.11405       45.87908       45.35243    
   45.10274       45.04617       44.81510    
   0.000000       0.000000       45.44146       45.90915       46.26405       46.60373       47.03640       47.08052       46.90693       46.73585    
   46.69891       46.77370       46.56088       46.46200       46.04266       45.84940       45.66541       44.70000       44.70000       44.70000    
   44.70000       44.83705       44.87598    
   0.000000       0.000000       44.87786       44.96001       45.46720       45.91235       46.11988       46.40622       46.08085       45.67609    
   45.65575       45.84846       46.00697       45.72307       45.57027       45.20175       44.70000       44.70000       44.70000       44.70000    
   44.70000       44.83982       44.89064    
   0.000000       0.000000       44.70131       44.70817       44.85818       45.27061       45.68245       45.58897       45.37623       44.96988    
   44.98578       45.23742       45.44130       45.21641       44.70000       44.70000       44.70000       44.70000       44.70000       44.70000    
   44.70000       44.70000       44.70000    
   0.000000       0.000000       44.58849       44.61653       44.52098       44.67909       45.13648       45.32303       45.14969       44.75963    
   44.76481       45.06365       45.10396       44.89016       44.70000       44.70000       44.70000       44.70000       44.70000       44.70000    
   44.70000       44.70000       44.70000    
   0.000000       0.000000       43.95383       44.17648       44.09495       44.05017       44.70411       44.77194       44.94323       44.92371    
   44.86247       44.84868       44.88270       44.70000       44.70000       44.70000       44.70000       44.70000       44.70000       44.70000    
   44.70000       44.70000       44.70000    
   0.000000       0.000000       42.46248       43.02036       42.84806       43.41560       43.59143       44.50481       44.91873       44.77177    
   45.00219       44.86919       44.70000       44.70000       44.70000       44.70000       44.70000       44.70000       44.70000       44.70000    
   44.70000       44.70000       44.70000    
   0.000000       40.01879       40.18905       41.20109       41.71451       41.88698       42.14997       42.70956       43.54341       44.09773    
   44.70000       44.70000       44.70000       44.70000       44.70000       44.70000       44.70000       44.70000       44.70000       44.70000    
   44.70000       44.70000       44.70000    
   0.000000       38.03183       38.31217       38.55771       38.76405       39.25329       39.78199       41.15136       42.12946       43.02421    
   44.70000       44.70000       44.70000       44.70000       44.70000       44.70000       44.70000       44.70000       44.70000       44.70000    
   44.70000       44.70000       44.70000    
   0.000000       37.01448       37.21569       37.45024       37.69574       37.95530       38.78423       39.73898       40.77802       41.86196    
   43.47788       44.70000       44.70000       44.70000       44.70000       44.70000       44.70000       44.70000       44.70000       44.70000    
   44.70000       44.70000       44.70000    
   0.000000       35.94450       36.42159       36.63431       36.87545       37.13364       37.39964       38.26950       39.33176       40.44293    
   41.70019       43.36718       44.16050       44.70000       44.70000       44.70000       44.70000       44.70000       44.70000       44.70000    
   44.70000       44.70000       44.70000    
   0.000000       35.56268       35.62739       35.72309       36.28952       36.52148       36.75356       36.97391       37.88067       39.01558    
   40.38499       42.30865       43.29508       43.61368       44.23183       44.70000       44.70000       44.70000       44.70000       44.70000    
   44.70000       44.70000       44.70000    
   0.000000       35.32780       35.39870       35.49293       35.57943       35.65180       35.77127       35.92081       36.70264       37.73104    
   38.23864       41.73158       42.88891       43.20666       43.61378       44.24028       44.42056       44.56547       44.63360       44.65668    
   44.62591       44.63475       44.62303    
   0.000000       35.20000       35.20000       35.20000       35.20000       35.20000       35.20000       35.69275       35.80599       36.63382    
   37.72902       39.64039       41.58701       42.16059       43.14555       43.57011       43.92372       44.21032       44.49554       44.61177    
   44.56707       44.66167       44.49791    
   0.000000       35.30000       35.20000       35.20000       35.20000       35.20000       35.20000       35.20000       35.20000       36.31399    
   36.70003       38.36096       39.68642       40.93872       42.01394       42.52439       43.03845       43.74415       44.04657       44.18067    
   44.22141       44.22273       44.02298    
   0.000000       35.30000       35.20000       35.20000       35.20000       35.20000       35.20000       35.20000       35.20000       35.65907    
   36.38103       37.27727       38.90320       39.55712       40.62660       41.53173       42.04636       42.56961       42.99134       43.39213    
   43.43477       43.37862       43.23025    
   0.000000       35.30000       35.30000       35.20000       35.20000       35.20000       35.20000       35.20000       35.20000       35.20000    
   36.06686       36.75914       37.66785       38.62954       39.49022       39.86574       40.61526       41.18266       41.66759       41.89802    
   42.07442       41.91519       41.83581    
   0.000000       35.30000       35.30000       35.30000       35.20000       35.20000       35.20000       35.20000       35.20000       35.20000    
   35.75143       35.97365       36.67653       37.41681       37.92575       38.27066       38.54752       39.43893       40.09199       40.26299    
   39.91548       39.47344       39.68929    
   35.30000       35.30000       35.30000       35.30000       35.30000       35.20000       35.20000       35.20000       35.20000       35.20000    
   35.31845       35.62664       36.22703       36.80555       36.92770       36.48822       36.62145       37.65564       38.63203       38.73006    
   37.84223       36.86355       37.10613    
   35.30000       35.30000       35.30000       35.30000       35.30000       35.20000       35.20000       35.20000       35.20000       35.20000    
   35.19079       35.22231       35.55008       35.99369       36.01184       35.54477       35.37628       36.22906       37.36863       37.44541    
   36.56945       35.34531       35.69992    
   35.30000       35.30000       35.30000       35.30000       35.20000       35.20000       35.20000       35.20000       35.20000       35.11626    
   35.11883       34.95887       35.01943       35.62421       35.57812       35.36559       35.39380       35.96470       36.64537       36.72627    
   36.13243       35.52773       35.76020    
   35.30000       35.30000       35.20000       35.20000       35.20000       35.20000       35.20000       34.94899       34.91899       34.73893    
   34.77765       34.66836       34.30157       34.60158       35.02809       35.47184       35.39246       35.74231       35.99847       36.57873    
   36.35161       36.11114       36.20408    
   35.30000       35.30000       35.20000       35.20000       35.20000       35.20000       34.83297       34.75254       34.31251       34.29059    
   34.27605       33.93645       33.81960       34.16253       34.07719       34.25382       35.17135       35.53214       35.67765       35.78793    
   35.83464       36.34987       36.43791    
   35.12548       35.12310       34.95720       34.79170       34.69400       34.15373       34.03618       33.47670       33.35148       33.30426    
   33.29614       33.21076       33.15856       32.89639       33.36697       33.51129       33.99648       34.44375       35.14173       35.27208    
   35.39428       35.50729       36.27505    
   34.91424       34.89793       34.49126       34.12849       33.79508       33.55027       32.88529       32.67316       32.51375       32.44337    
   32.03301       32.00368       31.73346       31.81801       32.52737       32.65655       33.13391       33.25829       33.73543       34.50808    
   34.67284       34.43860       34.59895    
   34.97411       34.28858       33.48948       32.98698       33.01610       32.30274       31.93857       31.69595       31.54533       31.10526    
   31.04583       31.03564       30.82167       30.96090       31.08946       31.74992       31.83823       32.19094       32.33873       32.49816    
   32.85587       33.02970       34.16379    
   34.22854       32.95234       31.85778       31.64508       31.33855       30.98855       30.81139       30.55770       30.24302       30.14453    
   30.04686       29.80884       29.94299       30.15757       30.31129       30.45894       30.33585       31.28315       31.42149       31.85484    
   32.06505       32.30580       33.16091    
   28.00000       28.00000       28.00000       28.00000       30.39449       30.03579       29.36980       29.33292       29.37433       29.34689    
   29.10708       28.93675       29.17686       29.48867       29.65392       29.52713       29.65209       30.29026       30.44212       30.49093    
   30.99614       31.24548       31.57993    
   28.00000       28.00000       28.00000       28.00000       28.00000       28.00000       28.00000       28.00000       28.00000       28.00000    
   28.00000       28.26209       28.63515       29.02320       29.02401       28.94351       28.95635       29.14885       29.58916       29.63266    
   29.98396       30.21147       30.60230    
   0.000000       0.000000       0.000000       0.000000       0.000000       0.000000       0.000000       28.00000       28.00000       28.00000    
   28.00000       28.00000       28.00000       28.00000       28.00000       28.00000       28.00000       28.00000       28.00000       29.02383    
   28.98969       29.27038       29.73061    
   0.000000       0.000000       0.000000       0.000000       0.000000       0.000000       0.000000       0.000000       0.000000       0.000000    
   0.000000       0.000000       0.000000       28.00000       28.00000       28.00000       28.00000       28.00000       28.00000       28.00000    
   28.00000       28.00000       28.00000    
   0.000000       0.000000       0.000000       0.000000       0.000000       0.000000       0.000000       0.000000       0.000000       0.000000    
   0.000000       0.000000       0.000000       0.000000       0.000000       0.000000       0.000000       0.000000       0.000000       0.000000    
   28.00000       28.00000       28.00000    
    INTERNAL  FACTOR    1.000000      IPRN  1
   0.000000       0.000000       0.000000       50.00000       50.00000       50.00000       50.00000       50.00000       50.00000       50.00000    
   50.00000       50.09000       50.14000       50.14000       50.09000       50.00000       50.00000       50.00000       50.00000       50.00000    
   50.00000       49.94077       49.63989    
   0.000000       0.000000       49.17713       49.59410       49.72033       49.61828       49.70295       49.76375       49.59791       49.56149    
   49.71222       49.64343       49.37279       49.15080       49.37614       49.49003       49.12191       49.04263       49.40146       49.16639    
   49.08224       49.19166       48.93896    
   0.000000       0.000000       48.59999       48.94608       49.10060       49.19247       49.27281       49.28142       49.12533       49.07158    
   49.09289       49.00967       48.96358       48.67846       48.71398       48.51997       48.49549       48.36049       48.16927       47.97661    
   47.76025       47.61858       47.46337    
   0.000000       0.000000       47.51310       48.05341       48.26409       48.53504       48.65749       48.58127       48.50942       48.44083    
   48.39838       48.32825       48.17526       48.05861       47.71687       47.62728       47.41132       47.21214       47.00966       46.66526    
   46.27454       46.04104       45.76956    
   0.000000       0.000000       46.33884       46.74814       47.28294       47.73977       47.91689       47.84066       47.74922       47.64922    
   47.59395       47.56808       47.23318       47.10137       46.94701       46.79538       46.30180       46.11405       45.87908       45.35243    
   45.10274       45.04617       44.81510    
   0.000000       0.000000       45.44146       45.90915       46.26405       46.60373       47.03640       47.08052       46.90693       46.73585    
   46.69891       46.77370       46.56088       46.46200       46.04266       45.84940       45.66541       45.49949       45.15960       45.02072    
   44.79670       44.83705       44.87598    
   0.000000       0.000000       44.87786       44.96001       45.46720       45.91235       46.11988       46.40622       46.08085       45.67609    
   45.65575       45.84846       46.00697       45.72307       45.57027       45.20175       45.08806       44.83966       44.81214       44.85417    
   44.73167       44.83982       44.89064    
   0.000000       0.000000       44.70131       44.70817       44.85818       45.27061       45.68245       45.58897       45.37623       44.96988    
   44.98578       45.23742       45.44130       45.21641       45.21729       44.94687       44.70000       44.74128       44.70000       44.70000    
   44.70000       44.70000       44.70000    
   0.000000       0.000000       44.58849       44.61653       44.52098       44.67909       45.13648       45.32303       45.14969       44.75963    
   44.76481       45.06365       45.10396       44.89016       44.82277       44.70000       44.70000       44.70000       44.70000       44.70000    
   44.70000       44.70000       44.70000    
   0.000000       0.000000       43.95383       44.17648       44.09495       44.05017       44.70411       44.77194       44.94323       44.92371    
   44.86247       44.84868       44.88270       44.70000       44.70000       44.70000       44.70000       44.70000       44.70000       44.70000    
   44.70000       44.70000       44.70000    
   0.000000       0.000000       42.46248       43.02036       42.84806       43.41560       43.59143       44.50481       44.91873       44.77177    
   45.00219       44.86919       44.70000       44.70000       44.70000       44.70000       44.70000       44.70000       44.70000       44.70000    
   44.70000       44.70000       44.70000    
   0.000000       40.01879       40.18905       41.20109       41.71451       41.88698       42.14997       42.70956       43.54341       44.09773    
   44.70000       44.70000       44.70000       44.70000       44.70000       44.70000       44.70000       44.70000       44.70000       44.70000    
   44.70000       44.70000       44.70000    
   0.000000       38.03183       38.31217       38.55771       38.76405       39.25329       39.78199       41.15136       42.12946       43.02421    
   44.70000       44.70000       44.70000       44.70000       44.70000       44.70000       44.70000       44.70000       44.70000       44.70000    
   44.70000       44.70000       44.70000    
   0.000000       37.01448       37.21569       37.45024       37.69574       37.95530       38.78423       39.73898       40.77802       41.86196    