# Simulation name file for MODFLOW 6 prepared by MF5to6

BEGIN Options
END Options

BEGIN Timing
  TDIS6  ex06.tdis
END Timing

BEGIN Models
  GWF6  ex06.nam  ex06
END Models

BEGIN Exchanges
END Exchanges

BEGIN SOLUTIONGROUP 1
  MXITER  1
  IMS6  ex06.ims  ex06
END SOLUTIONGROUP
