BEGIN OPTIONS
END OPTIONS

BEGIN GRIDDATA
  STRT
  CONSTANT 400
END GRIDDATA
