begin options
end options

begin dimensions
  maxbound 21
end dimensions

begin period 1
  1 1  20 320. 100000 318
  1 2  20 320. 100000 318
  1 3  20 320. 100000 318
  1 4  20 320. 100000 318
  1 5  20 320. 100000 318
  1 6  20 320. 100000 318
  1 7  20 320. 100000 318
  1 8  20 320. 100000 318
  1 9  20 320. 100000 318
  1 10 20 320. 100000 318
  1 11 20 320. 100000 318
  1 12 20 320. 100000 318
  1 13 20 320. 100000 318
  1 14 20 320. 100000 318
  1 15 20 320. 100000 318
  1 16 20 320. 100000 318
  1 17 20 320. 100000 318
  1 18 20 320. 100000 318
  1 19 20 320. 100000 318
  1 20 20 320. 100000 318
  1 21 20 320. 100000 318
end period