begin options
end options

begin dimensions
  maxbound 1
end dimensions

begin period 1
 3 10 11 -150000
end period
